22
Properties=species:S:1:pos:R:3:momenta:R:3:forces:R:3 energy=-30133.566331797174 pbc="F F F"
O       -6.02705937      -1.11749771       7.39510333       0.61526145       0.92127631      -0.55791176      -0.10139879       0.31727682      -0.07311282
H       -4.60302556      -0.80853055       6.61232664      -0.29584409       0.20090737       0.04693284       0.56784317       0.11032995      -0.22000273
O       -6.95415646      -1.18163183       6.30812530      -0.37117629      -0.22304918       0.54680637       0.36987033      -0.45357107       0.65578972
H       -7.08952287      -2.14286595       6.34548556       0.12189899       0.10724537       0.08100517      -0.40527633      -0.05910944      -0.57757235
H       -6.44968206      -0.48189361       7.99466158      -0.08057810       0.03458851       0.12578412       0.02930117       0.15091613       0.11454792
H       -6.11657148      -0.78461229       4.92852726       0.20004052       0.07728931      -0.27269729       0.55907807       0.37854086      -1.38377081
S       -3.39942428      -0.59783987       5.98094263       0.07851467      -1.19877018      -0.55368928      -0.56256279      -0.60288781       0.80524039
S       -5.22424881      -0.52214917       3.84947204      -0.47574606       0.85490870       0.33965093      -0.97716179      -0.03880712       0.72597277
C       -2.42597524      -0.86233201       7.56043056      -0.13507158      -0.64569564      -0.00185835       0.04105816       0.37351036      -0.88717711
H       -2.30464410       0.15534938       7.93245331      -0.31007121       0.07359690      -0.11411749       0.38073957      -0.10850757       0.33520883
H       -2.91599354      -1.46727079       8.31899049      -0.01145467       0.15056581       0.00259981      -0.80770230       0.09438625      -0.07081403
C       -6.42914411       0.18249729       2.62188912      -0.10846625       0.27680646       1.05093868      -1.61546779       0.67005730       0.97566599
H       -5.83047241       0.58689512       1.81281373       0.07111339      -0.17408570      -0.18380785       0.36175448       0.34864873      -0.00320592
H       -7.04139259       1.06977123       3.11857244       0.06839926      -0.48413217      -0.01280631       1.46880364      -1.73924780      -0.96222043
C       -7.47337365      -0.78278004       1.97001691      -0.01670149      -0.12747777       0.30438591      -0.30001777       1.79825091       1.39418197
H       -7.04058496      -1.65824957       1.49950430       0.03942417      -0.02087028       0.03342741       0.12611187      -0.01919698      -0.35981029
H       -8.15797735      -1.10702977       2.78658500      -0.11537321      -0.13514358       0.04022757       0.13532242      -0.02216430      -0.68035030
H       -8.03494865      -0.08043086       1.28091630       0.06180808      -0.22618937      -0.11839295       0.36875176      -1.30630541       0.36187911
C       -1.12911100      -1.60589320       7.24460670       0.19385653       0.54834120      -0.65176376      -2.37281823      -0.81423420      -0.86506045
H       -0.58358226      -1.05616385       6.51044104       0.19276956       0.11138455       0.04782524       0.85290641       0.14370494      -0.58782142
H       -0.61278966      -1.72903715       8.15697427       0.26472458       0.16285240      -0.04254681       1.07868636      -0.23282656       1.04194784
H       -1.45859055      -2.61811261       6.85294659       0.01267197      -0.28434806      -0.10999222       0.80217832       1.01123595       0.26048496
