20
Properties=species:S:1:pos:R:3:momenta:R:3:forces:R:3 Coordinates=T from=T ORCA-job=T int=T E=T -1253.934929368563=T energy=-23252.3717765994 pbc="F F F"
N       -1.21251513      -0.58505848       1.96951503      -1.27704301       0.23229159      -1.02498548       0.00785094      -0.72337854       1.24015479
C       -1.84620760      -1.28449061       0.83453870       0.41492152       1.73100166       0.82216107       1.05279899       0.89290130      -0.52225626
H       -1.73757595      -0.74556999       2.88282759      -0.07172754      -0.33376563       0.08635055       0.74744278       0.03513932      -1.66315460
H       -0.23269962      -1.02162105       2.02277733      -0.15618469      -0.25567197       0.16577631      -1.65517848       0.29030292       0.10000721
C       -0.64436939      -1.34332481      -0.27625552       0.69900475       0.38805043      -1.04014386      -0.87901503       0.56541985       1.11137414
S        0.94354826      -1.00673167       0.56779741       0.13126978       1.33739385       1.13284180       0.60243290      -0.82563801      -0.22015265
H       -0.70211507      -0.46871346      -0.95321627      -0.21733486      -0.12913927       0.32572084      -0.39660573      -0.73111498      -0.00269076
H       -0.63415229      -2.31919545      -0.76955931      -0.23205064      -0.02070446       0.08984053       0.18609644       0.29390839      -0.18267013
C       -3.00526807      -0.44511343       0.25959840      -0.46843399      -0.41590598       0.48194527       0.48610219      -0.98883182      -0.42305309
H       -2.27010552      -2.27896023       1.04467159       0.05635334       0.19472470      -0.20113835       0.25294369       0.01818573      -0.02367254
O       -4.05945014      -0.92278559      -0.09334359      -0.93973430      -0.56109177      -0.55131105      -0.71359324      -0.82134479       0.21825846
N       -2.69442566       0.83696116       0.00918718       1.08471460       0.04907936       0.06703822      -0.99878740       2.48253536       0.79465783
H       -1.94756905       1.22969171       0.60206164       0.01298251      -0.10019173      -0.06394265      -0.55139101       0.07574879      -0.65000105
C        0.56904465       0.65452017       1.06444713       0.12762154      -1.17537393      -0.07921855      -0.86329245       1.50558281       0.55076814
O        0.10397230       1.48509462       0.29608962       0.22068976       0.59991697      -0.35905195       0.30507576      -0.63377297       0.35295439
C        0.91458054       1.05947282       2.50999489       0.32916397      -1.31630904      -0.15767311       1.29486227      -0.78371823      -0.80023360
H        0.19178302       1.68995525       2.99782338      -0.13488795      -0.00951382       0.12311991      -0.86225027      -0.03891984      -0.07056635
H       -3.57552119       1.41922031      -0.11738887       0.12455233       0.04217404      -0.11911513       1.83383739      -0.90114039       0.07148408
H        1.81382590       1.66699611       2.46880278       0.20967966      -0.35003175      -0.08965395       0.37918603       0.18038118      -0.13761392
H        1.18572591       0.17177661       3.08735025       0.08644270       0.09306695       0.39143994      -0.22851585       0.10775369       0.25640666
