23
Properties=species:S:1:pos:R:3:momenta:R:3:forces:R:3 energy=-34120.5443329828 pbc="F F F"
N       -0.01706635      -0.98728718       0.55971648       0.36943883      -1.61490456       0.19333357       1.78310382      -0.73158312      -0.70748979
C       -0.78861236      -0.66359401      -0.63042008      -0.35649760       0.66600865       0.16534225       0.61186814       1.56253505      -0.13757019
H        0.53992389      -1.87356191       0.33939376      -0.10633974      -0.09067723       0.11428264      -1.20033836       1.04872346       0.23857930
H        0.73603392      -0.29484334       0.50076891      -0.26112580       0.01688639      -0.03927680      -0.02154388       0.00954117       0.68870455
C       -2.19486956      -1.18788958      -0.50178575       0.31594533      -0.26713292       0.80150452       0.02885139      -0.67891997       1.53644347
S       -3.26838889       0.04298708       0.32127402      -0.89437265       0.46989677       0.10151588      -0.02011184       0.32463935      -0.86806165
H       -2.08222029      -2.00554591       0.26468766      -0.11149471       0.26530285       0.12450454      -0.74665004       0.21354304      -1.27748680
H       -2.60315789      -1.46328758      -1.47486378       0.32006995       0.12333092       0.03819658      -0.29643527      -0.35409689       0.25316530
H       -3.32822640      -0.50677008       1.50765270       0.04858582       0.11939572       0.02851384       0.32960251      -0.46512435       1.15466031
C       -0.03798566      -1.12299694      -1.88091393      -0.44749939       0.16701407       0.10592948      -0.13084233      -0.31042820      -0.68369073
H       -0.87223250       0.45624860      -0.70769293       0.12767313       0.13104178       0.13244558       0.15544620      -0.74405038       0.20135313
O        0.63430169      -2.14258441      -1.90893822      -0.28054190      -0.44098157      -0.09782049      -0.05519666       0.34904605      -0.03277536
N       -0.22768246      -0.26800573      -2.93534543      -0.20970881      -0.14992965       0.85967155       0.42242938      -0.85153651      -0.16915947
H       -0.92556936       0.43719187      -2.76780580       0.11074092      -0.01378539       0.07110923       0.01896677       0.26042992      -0.68406874
C       -1.67900744      -1.52881479       3.15679874       0.39171800       0.56347051      -0.28581635      -0.52237441      -0.38136074       0.92954742
O       -2.66147503      -2.20499208       2.86574156       0.10962287       0.19184713      -0.61797140       1.66440117       1.79030836       0.10700981
S       -1.63620753       0.23171339       3.69203832       1.12457666       0.34227611      -0.63940423      -1.15180047      -0.76494296      -1.11534515
H       -0.33193189       0.14906580       3.90625607       0.04456751      -0.15673652       0.01670240       0.30355442       0.28654793       0.11412662
C       -0.29711680      -2.13706520       3.42479452      -0.14169482      -0.12617425      -1.01239265      -1.38643587      -2.56884527      -1.23236334
H       -0.46916202      -3.23651332       3.25195671       0.31901329      -0.13578102      -0.17783570       0.40672421       0.86841327       0.45734066
H        0.11022483      -0.51207734      -3.88248991      -0.38684475       0.00565250      -0.12110319      -0.46706274       0.34758231       1.04094172
H        0.09921008      -1.96535672       4.40422914      -0.19184042       0.06836474       0.20586427      -0.07834551       0.17566167       0.80515528
H        0.42487046      -1.84160630       2.69674031       0.10600854      -0.13438592       0.03270453       0.35218960       0.61391771      -0.61901677
