23
Properties=species:S:1:pos:R:3:momenta:R:3:forces:R:3 energy=-34120.370547516875 pbc="F F F"
N       -3.64861870      -1.89780975       1.18188461      -0.24842167       0.60692292      -0.37027799      -2.68903351       0.40465134       0.49769157
C       -2.36406522      -1.45731160       1.62381912      -0.40624952      -0.15736222       0.17460202      -0.12626307      -2.40189195       0.98421723
H       -4.29275141      -1.07923515       1.08441979      -0.16391017      -0.38585549      -0.03230621       0.75734872      -0.90201384       0.01393900
H       -4.11693389      -2.50435318       1.91193244      -0.08345879       0.01794733       0.19143278       1.03031802       0.80193925      -0.91395813
C       -1.37064205      -2.59308872       1.24071117       0.09325962       0.56183126       0.16972274       0.25415704       1.03277636      -0.94953936
S       -1.08934066      -2.43749527      -0.58332135       1.71345196       0.11484553      -0.54416004      -0.17309919      -0.25592568       0.42709246
H       -1.74404556      -3.57296561       1.54240383      -0.01761115       0.08086907      -0.23900293      -0.28963226      -0.00652249      -0.23473132
H       -0.38732298      -2.47604166       1.67085782       0.23172035      -0.01584272       0.29525757       0.40127987       0.20621303       0.47793671
H       -1.29985459      -1.09095469      -0.56032199       0.12671322      -0.07290972      -0.01025786      -0.21514794      -0.85347162      -0.35113580
C       -2.26494877      -1.26810156       3.12058586       0.47070003       0.04808475      -0.04871947       0.20373651      -2.38570619       1.45911312
H       -2.08641810      -0.56875260       1.12668533      -0.16897804       0.09621505      -0.05948625       0.21032584       1.15968859      -0.51089692
O       -2.80520232      -2.07959936       3.90927666       0.05043739      -0.45302091       0.99229432       0.45138782       2.05725098      -1.31870615
N       -1.30421498      -0.38275545       3.44223715      -1.08936700      -0.47882078      -0.52176824       1.34510922       1.84751964      -0.75228310
H       -0.72139995       0.11240880       2.72151675       0.08719902      -0.20054537      -0.35682474      -1.07210195      -1.00406682       0.65459174
C        0.13437691       0.38616797      -0.25456022       0.65622233      -0.02708528      -0.39694306      -1.02128580       1.44613704      -0.76655286
O        0.40036195       0.21659708       0.89106858       0.58322168      -1.12879781       0.42586314       0.00796124      -0.36473623       1.67694926
S       -1.53986614       1.10220112      -0.71165015      -1.77286045       1.73484160       0.29726249       1.01559758       0.97132884       0.26729424
H       -1.36246922       2.31756811      -0.06439016       0.11567458      -0.06084751       0.00483619      -0.18413354      -0.97599977      -0.48586893
C        1.13024361       0.17313168      -1.34683695      -0.29416643      -0.32356982       0.24901828      -1.11211109      -0.76884490       0.08867097
H        1.07959462       0.99191934      -2.05965926       0.18690838       0.26936225      -0.01042114       0.15001653      -0.05868826      -0.22597474
H       -1.15337957       0.00974442       4.35463878       0.02234169       0.17904542      -0.14225311      -0.33561566      -0.40993294       0.54918158
H        0.80081822      -0.80199514      -1.79632321      -0.19958097      -0.21250169      -0.14560721       0.92352742       0.81103575       0.07980356
H        2.05199924       0.14546070      -0.76853928       0.10675439      -0.19280604       0.07773944       0.46765825      -0.35074008      -0.66683370
