23
Properties=species:S:1:pos:R:3:momenta:R:3:forces:R:3 energy=-34120.03410315942 pbc="F F F"
N        0.16380593       1.31010096       2.46707925       0.50069976       0.99686829      -0.87937455       1.69433725       0.18100020      -0.09423725
C       -0.92778397       1.77080531       1.61453233       0.18088756       0.07235061       0.61827906       0.42146575       2.50794578       1.59001219
H        0.61953231       0.49256772       2.05842466      -0.32356177       0.21559020      -0.16490539      -0.18675594       0.01756280       0.34014076
H        0.93932213       2.02148498       2.61334990      -0.19577281       0.46023545      -0.03726019      -1.56796825      -0.98370510      -0.46726695
C       -2.18818281       1.02101828       1.96098493       0.10359177      -0.00177342      -1.17175648      -0.35079026       0.14944939       0.92189103
S       -2.22941891      -0.70962686       1.52243028      -0.50443484       0.50706685       2.25235798      -0.35337840      -0.30202301      -0.54027452
H       -3.13954080       1.48138707       1.67567859       0.15830632       0.27507493       0.28712914       0.24981393       0.09609058      -0.75033402
H       -2.23476701       1.07758766       3.04857268       0.18399471      -0.09786390      -0.25262563       0.07456018      -0.14478762       0.22446808
H       -2.78690450      -5.27747840      -2.07952605       0.14620746      -0.26943273       0.53728164       1.17971277      -0.27490455      -0.12505142
C       -0.56153779       1.98876026       0.14005825      -0.35933740       0.46880765      -0.74280431       0.04863411      -3.97426081       2.38418055
H       -1.10015829       2.78333180       2.07157473      -0.05882046      -0.09465606      -0.18240631      -0.13635956      -0.48326126      -1.04730451
O       -0.63812945       3.03568727      -0.37251522       0.14645263       1.71001334      -0.31130327      -0.29908997       4.12664175      -2.15895367
N       -0.06058405       0.87057712      -0.46144582       1.17315358       0.87569131       0.96615048      -0.16810378      -0.62894535       0.14198075
H       -0.34055107      -0.04970711      -0.08269267       0.44308874      -0.07189140      -0.20079868       0.43693784       0.76396167      -0.77881908
C       -1.27190660      -1.52142736       2.85120093       0.11858967       0.12511311       2.10117488       1.08984671       0.18389790      -1.24168191
O       -0.07010782      -1.46154407       2.95634694      -0.15167499      -1.20582460       1.26781673      -0.16898564       0.22862111       0.21281417
S       -2.50731434      -6.28537503      -2.96347490      -1.54254092      -2.81189577      -2.93456751      -0.01877224      -0.74172237      -0.67412032
H       -1.13547883      -6.52869233      -3.03969706      -0.04625160      -0.47596654      -0.44267769      -1.16094041       1.01662695       0.79917175
C       -2.05649456      -2.49430812       3.58527267       0.14646386      -0.73954813      -0.52031677      -2.27992964      -0.15024653       2.29208374
H       -3.05781345      -2.18094707       3.99948030       0.03767090      -0.07529894       0.11232632       0.89227116       0.24353577      -0.77578092
H        0.16300916       1.02028068      -1.43801624      -0.17638894      -0.11458434      -0.36480519      -0.10026844      -0.52157182      -0.00646389
H       -1.51570563      -2.82194279       4.44105128      -0.09071206      -0.01553988       0.10185876       0.84738833      -0.32365656       0.82134485
H       -2.25289088      -3.36207522       3.01206428       0.11038956       0.26746329      -0.03877452      -0.14362457      -0.98624915      -1.06779981
