22
Properties=species:S:1:pos:R:3:momenta:R:3:forces:R:3 energy=-30133.7502255976 pbc="F F F"
O       -4.33378569       1.70146341       4.25937535       0.26483478       0.29632245       0.07385502       0.40178370       1.88291137       0.22395905
H       -3.70331120      -0.00013722       3.71039685      -0.00086292      -0.08310045       0.01352775      -0.06131739       0.34673582       0.12979855
O       -4.85180122       1.52828696       5.61410090      -0.68726574       0.53958569      -0.43161626      -1.07168033       0.35973496      -1.58917736
H       -4.04640391       1.43170743       6.10032915       0.02464867      -0.12435369       0.08812896       1.28208399      -0.13872348       0.55649930
H       -4.17082849       2.72723561       4.09386884      -0.06104951       0.19978297      -0.22240325      -0.70304638      -2.88717151       0.98300678
H       -5.69143019      -0.05495636       6.32264147      -0.21887226      -0.19580920      -0.30673358       0.37076926      -0.10355462      -0.53281932
S       -3.98749995      -1.30148183       3.90664888      -0.78710087      -0.08712439       1.37789415      -1.23139546      -0.12779281       1.17849867
S       -5.90984687      -1.41398615       6.38062320      -0.03059342      -0.52606737      -0.82609970       0.41676349       0.73155464      -0.74307797
C       -2.42306039      -2.06513134       3.50636204       0.54134029       0.45544259       0.27084982       0.58086514      -2.19128418      -0.87066436
H       -2.58832727      -3.24999429       3.61511496       0.29806509       0.30080807       0.08574911       0.36787927       2.67657161      -0.11956295
H       -2.32502148      -1.88528558       2.39462052      -0.42375877      -0.00489232      -0.01885263       0.58742869      -0.30751827       1.14985323
C       -7.12976966      -1.27710843       7.73510251       0.88136613       0.10239214       0.25589602       0.13581625      -1.73106301      -1.14712381
H       -6.85895916      -0.39170911       8.20478151       0.01320824      -0.17791855      -0.41879044       0.17118490       1.86658311       1.16755188
H       -6.83731074      -2.08350826       8.39568998      -0.01646641       0.03135265      -0.19329603      -0.38268954      -0.28593394       0.43947098
C       -8.58061963      -1.29456169       7.26393850      -0.15780593      -0.09473003      -0.17848357      -0.25474823       0.08116221      -0.67914343
H       -8.98584893      -2.33338421       7.17743414      -0.00526314      -0.16057021       0.29916333       0.44336492       0.71905959      -0.32895428
H       -9.23006626      -0.79512932       8.01008152       0.02522746      -0.03014387       0.13480783       0.24756551       0.05497765      -0.45003498
H       -8.60363750      -0.75348463       6.25343478       0.08172923       0.09967963       0.14372275      -0.49473572      -0.77811605       1.42447889
C       -1.20535956      -1.55897867       4.37126749       0.45164034      -0.19779552       0.00593551      -2.03476477      -1.37526345      -0.37462759
H       -0.33914470      -2.18837149       4.12131917       0.10729790      -0.15993534      -0.13723429       0.05178260       0.51160920       0.13856913
H       -1.11606611      -0.51989446       4.08525417      -0.28042565       0.16032688      -0.00591195       0.73861492       0.43725502       0.29204693
H       -1.48729974      -1.67725176       5.45036127      -0.01989306      -0.34325203      -0.01010819       0.43847537       0.25826591      -0.84854710
