22
Properties=species:S:1:pos:R:3:momenta:R:3:forces:R:3 energy=-30136.479150318257 pbc="F F F"
O       -5.61497318       3.25624208      -0.11789716       0.82771766      -0.94584694      -0.80714547      -0.91697180      -0.01133418       0.45400193
H       -6.48009116       3.51803819       0.31391793       0.12489073       0.19274353      -0.05199158       1.14496899      -0.08120256      -0.56810561
O        7.38905416     -34.39311534     -11.19116542       1.59031547      -1.18069442      -1.23963857       0.80706600       1.23966784      -0.30624230
H        6.79637250     -35.12384428     -11.06570087      -0.33461624      -0.12745787      -0.02933136      -0.79304558      -0.28195792      -0.21723825
H       -5.15748213       4.07714820      -0.33397433      -0.47170705      -0.37454740      -0.06754517      -0.22799718       0.09253674       0.11410370
H        6.96852066     -33.70553941     -11.76968114      -0.24793352      -0.22546266      -0.11934082      -0.01402046      -0.95770997       0.52348048
S       -6.03558484       2.85509234       7.59363780      -2.35363429       0.14466397      -0.66689837       0.93844381      -0.06037064      -1.37161060
S       -5.55161125       3.86154379       9.30532202       3.76958528       0.61607778       1.99737387      -0.02296491      -0.16991900       0.58458245
C       -7.76144536       2.40911616       7.82835426      -0.91280664       0.25513392       1.17478944       0.29655144       0.90391922      -0.96115583
H       -7.76541015       1.93940873       8.73681527      -0.27715681       0.03880887      -0.38768300      -0.37971339      -1.32900703       2.80112410
H       -8.22948723       3.37047938       7.93162045      -0.61505535       0.17593994      -0.24178007      -1.09508407       0.27347988      -0.10457519
C       -6.32107870       5.53289994       9.27490550      -0.54645634       0.31801751      -0.69905523       1.29005659      -1.14223659      -0.86636889
H       -7.23121422       5.49536686       8.66603333      -0.20196872       0.32054670      -0.08404985       0.09907836       0.39576617       0.22773258
H       -5.55786302       6.16419863       8.86181284      -0.18187584      -0.25108267      -0.30078005       0.17348894       0.53930348      -0.83922052
C       -6.48787913       5.86151830      10.70946763      -0.23227873       0.77370826       0.90659658      -1.53221846       0.52463007       1.19280648
H       -6.65742608       6.91666327      10.94263194      -0.14848406       0.37787220       0.13437089      -0.04163446       0.18527883      -0.35013089
H       -7.39315834       5.33771315      10.98772935      -0.03629325       0.01370899      -0.16698212      -0.37640572      -0.15864414       0.79585242
H       -5.70537809       5.53107784      11.38211060       0.11104054       0.36673883       0.02508939       0.47619611      -0.26128295      -0.20058544
C       -8.33433326       1.49966228       6.78057308       0.05633649      -0.33937433       0.83590549      -1.29429519       1.41240311      -2.23343992
H       -7.74329553       0.58092815       6.65083883      -0.09008013      -0.24106418       0.19359411      -0.42939094       0.18416536       0.00943274
H       -9.44934086       1.34146200       6.86378761      -0.13343519       0.06971027      -0.35998867       1.13152862      -0.45754647       0.79919475
H       -8.38701899       2.09709519       5.82088782       0.30389655       0.02185982      -0.04550910       0.76636344      -0.83993936       0.51636171
