22
Properties=species:S:1:pos:R:3:momenta:R:3:forces:R:3 energy=-30134.004288015236 pbc="F F F"
O       -4.08703996      -2.99250463       6.14196523      -0.38760457      -0.53177983      -1.53136966       2.84753758       0.83342502       2.44065275
H       -4.07413365      -1.68126238       4.80930917      -0.21047227      -0.06947630      -0.03316665       0.48256048      -0.29735764      -0.20520969
O       -5.31528280      -2.87642923       6.84056082      -0.33105827      -1.10307732       0.58110375      -0.12298791      -1.60004942      -0.40724638
H       -5.61646874      -3.78292009       6.61524808       0.33173816       0.03841686      -0.33351244      -0.68991137       0.72562021       0.51975745
H       -3.40785502      -2.85264961       6.93982210       0.06436048       0.22572591       0.07260439      -1.90712333      -0.33075061      -2.65763450
H       -5.62210210      -1.24469293       6.46824799       0.16704014      -0.06062953       0.07041787      -0.33485003       1.00054340       0.08816700
S       -3.77146990      -0.57491029       4.10186390      -0.43159380       0.15807005      -1.29071119      -0.25257105       0.32391370       0.08153128
S       -5.60650593       0.11516123       6.25588153       1.31784138       0.85141087       1.91475656       0.80556440      -0.38954645      -0.78567302
C       -2.59619000      -1.24013786       2.85067239       0.37554421      -0.11531769       0.43328083      -0.65332693      -0.99125636       0.83221179
H       -1.60421344      -1.08471893       3.24176182       0.06182040      -0.27323596       0.12645774       0.50094628      -0.27601448       0.35042524
H       -2.79161884      -2.33163301       2.71391093       0.11470324       0.00225720      -0.15724276       0.21022198       0.77680093       0.06346269
C       -6.69482822       0.61147907       7.57945783      -0.25900705       0.02484758      -0.16333810      -0.64403874       0.99586797       0.04004163
H       -6.30383154       1.50438624       8.12093229      -0.00657473       0.05462310       0.13510993      -0.07432187      -0.55069977      -0.50680292
H       -6.73507710      -0.19323556       8.26149695      -0.03384787       0.25097823       0.03607515       0.13883008      -0.96587908       1.22842741
C       -8.11911647       0.84625894       7.07534394      -0.29544279      -0.73402804       0.15419281       0.80361998       1.21260715      -1.97791469
H       -8.54268455      -0.08612829       6.68657512      -0.05283803      -0.13513030       0.03103421      -0.00047065       0.07880935      -0.02479967
H       -8.73439294       1.20187762       7.89063203       0.11281854       0.07696743      -0.06338655      -0.38925898       0.33356968       0.11710143
H       -8.06402597       1.60914550       6.18736805      -0.22543269       0.09208282      -0.02712184      -0.47694570      -1.25147891       1.73467886
C       -2.70684638      -0.46646222       1.58071863      -0.30172076       1.11663850      -0.09612677      -1.24098015      -1.52942276      -1.49949026
H       -2.00622998      -0.83996364       0.82941813       0.04639248      -0.12157654       0.12737395       0.03496157      -0.16111058      -0.06317122
H       -3.72910665      -0.51311430       1.14401866      -0.07362034      -0.01760227       0.06192603       0.50640559      -0.07630187       0.23967150
H       -2.48437438       0.53844438       1.72703815       0.01695387       0.26983513      -0.04835751       0.45613766       2.13871074       0.39181334
