22
Properties=species:S:1:pos:R:3:momenta:R:3:forces:R:3 energy=-30132.20342486461 pbc="F F F"
O       -4.86461994      -2.84731454       6.40063479      -0.07480343       0.78763080       0.88065290      -0.71115638       0.43637822       0.72580703
H       -5.80326507      -1.98835233       5.59727732      -0.04470915       0.07937643      -0.13596785       0.09832371       1.08186551       0.07185642
O       -3.71953117      -2.30440250       7.07593865      -0.36822621      -0.95518065      -0.58272609      -0.91238727       0.62930328       0.48719566
H       -4.07252763      -2.41344019       7.98578642       0.19520732      -0.19394823       0.19039944       0.67451507       0.30957508      -0.06700131
H       -4.45214008      -3.16384391       5.60980744       0.06623397       0.20083711       0.09746154       0.74955058      -0.77540517      -1.54654253
H       -3.71207470      -0.73712485       6.61037521       0.06631699      -0.16098754       0.25613540       0.11194833      -0.60823161      -0.07971328
S       -6.21112797      -0.72741086       5.03108937       0.17600466      -1.83561595      -0.56241232       0.87784056      -0.04635577       0.76613839
S       -3.95939046       0.32009182       5.75253096      -0.07686479       2.69694432      -1.32785455      -0.67780010       0.06141023       0.14668774
C       -7.45489761      -1.49306888       4.00542889      -0.19943156      -0.65180518      -0.06667980      -1.43667912      -2.38057661      -0.18613487
H       -6.92573254      -2.12570351       3.27946418       0.16397231      -0.14057434      -0.00465529       0.03853111      -0.18493548       0.21249883
H       -8.04859719      -2.20737805       4.65776529      -0.00941249      -0.12379322      -0.07152388       0.48508081       0.91707224      -0.68511790
C       -2.26908877       0.95661237       5.63926530       0.30090297       0.20221886       0.39423847       0.99501562       0.50453472      -1.58508325
H       -1.79546312       1.10531492       6.62303597       0.03811409      -0.22423976       0.02502531      -0.56478614       0.26345930      -0.10679442
H       -2.25710414       1.96773661       5.04029120      -0.11659221       0.09636776      -0.11431292      -0.21286166      -1.80232978       1.29914868
C       -1.34460794      -0.06829099       4.90216149      -0.31620458      -0.02671477       1.08020889      -1.04447842       1.98482847      -1.47137702
H       -1.40881725      -1.01420839       5.36261455      -0.00335305       0.47145712      -0.19727316       0.21172075      -1.32148433       0.85569203
H       -1.56439313      -0.24097953       3.79104202      -0.12163725      -0.01199125      -0.01378983       0.20823763       0.64050353       1.50516605
H       -0.39076975       0.41232584       5.06233304       0.27230241      -0.19467546      -0.09122119       0.93435955      -0.51888353      -0.44858944
C       -8.32326546      -0.59869559       3.15862082      -0.61805295       0.10356375       0.64670221      -1.31239390       1.14428282       1.13467753
H       -8.89333129       0.19408501       3.68678531       0.46727051       0.24789475      -0.09807021       0.13508399      -0.65897000       0.43525621
H       -7.68448657       0.00045987       2.57143945       0.08128285      -0.33054251      -0.13023368       0.89989328       0.54173100      -1.45885301
H       -9.07126464      -1.12325309       2.54878641       0.12167949      -0.03622194      -0.17410336       0.45244187      -0.21777183      -0.00491773
