20
Properties=species:S:1:pos:R:3:momenta:R:3:forces:R:3 Coordinates=T from=T ORCA-job=T int=T E=T -1253.934929368563=T energy=-23252.930438087584 pbc="F F F"
N       -0.68600888      -0.73399748       2.00207534       0.16031075       0.31621018      -0.24023256       0.01919588      -0.69820695       1.49155567
C        0.41526879      -0.42248887       1.09636259       0.33484831       0.69377331       0.71677422      -1.00875616       1.05250835      -0.77539366
H       -0.26657931      -0.80581271       2.93216369      -0.01243728      -0.19761782      -0.50702991      -0.00605559      -0.78259742      -0.12751997
H       -1.29285909       0.06423117       2.15997326       0.18324029       0.16562821      -0.01118590       0.31271796       0.34649263      -0.62788195
C       -0.23690027       0.48262087      -0.00443451      -0.43341494       0.40411957      -0.06767873       1.85926616       0.32444039      -0.84031093
S       -1.37241768       1.66652694       0.80888328      -0.71604071      -0.91945131       0.05429629      -0.42949300      -0.33424188      -0.47645290
H       -0.85834249      -0.08147226      -0.70632500       0.02064546       0.09867727      -0.06743282      -0.09702717      -0.14996442       0.35146093
H        0.62172583       0.87795130      -0.65960253      -0.09121903       0.27143200      -0.21418691      -1.29144347       0.29182106       1.13423455
C        0.99131556      -1.64978579       0.32065487      -1.21095409      -0.20975429       0.54267514       1.48058259       2.56593084       1.03700399
H        1.19420456       0.14399775       1.63708166       0.01745072      -0.02825549       0.18302705       0.21343589      -0.28538990      -0.57330865
O        2.08514075      -1.58576476      -0.22008751       1.24674625      -0.84918523      -0.14787772      -0.37966585      -0.31049395      -0.01838149
N        0.13283163      -2.63989334       0.36514200       0.21649364       1.18541287       0.99736028      -2.37031341      -1.49377322      -0.07911295
H       -0.79874371      -2.37214491       0.72579159       0.27942428       0.11001494      -0.04204213       0.70912313      -0.37198180      -0.07846577
C       -2.77190498       0.48600266       0.78879114      -0.14933390      -0.40649903      -0.24034788      -0.11397668      -0.86193945       0.17036469
O       -2.82212688      -0.42024946      -0.01771020       0.00977803      -0.94795360      -0.46896903       0.03784304       0.53842103       0.17602301
C       -3.91817447       0.56237479       1.82682435      -0.01547143      -0.05528356       0.15451359       2.36331868       0.93915159       1.65570867
H       -4.74957880       0.22392654       1.29220900      -0.01144850      -0.18065180      -0.52613253      -1.68168783      -0.52763557      -0.65598744
H        0.17028089      -3.37810484      -0.31290728      -0.16905954      -0.14980289      -0.13754515       0.26590601      -0.35031202      -0.14282292
H       -4.07546995       1.58029523       2.25693241       0.26084034       0.39058773      -0.10452731       0.15933825      -0.68318295      -0.41365683
H       -3.72220647      -0.15497211       2.69346984       0.07960157       0.30859914       0.12654172      -0.04230889       0.79095346      -1.20705533
