23
Properties=species:S:1:pos:R:3:momenta:R:3:forces:R:3 energy=-34120.91279649621 pbc="F F F"
N        0.96670127      -1.58084384       2.66751600      -0.54814511       0.25778262       0.03815558       0.51268137       1.39498460      -1.74986088
C       -0.10877046      -0.83080404       1.97725164       1.16949590       0.31510660       0.60445685       1.36714780       0.61200178       0.07074517
H        0.75222955      -1.51355310       3.63497195       0.32366354      -0.22846385       0.15494775      -0.42831823      -0.22387102       1.26337039
H        1.78214971      -0.93493729       2.62718629       0.16687456      -0.17815233       0.25598592      -0.41891861      -0.68889487      -0.12302808
C        0.12218504      -0.75520500       0.43055086       0.12589470       0.60164926       0.66009048      -0.79593611      -0.31901395       0.64611489
S       -0.23033206      -2.29251128      -0.47374981      -1.43008726      -0.61924492       0.22215713       0.18459143       0.04990159      -0.23058307
H        1.16463439      -0.63498917       0.19287908      -0.16001155      -0.12786549      -0.16809110       0.74573946       0.45927796       0.22846754
H       -0.44331268       0.06211741      -0.03906401       0.13602830      -0.13367780       0.06280995       0.20148471      -0.27229589       0.32571378
H       -1.22627332      -2.77242536       0.25952469      -0.15061163       0.42468631       0.02479712      -0.68830980       0.03981751       0.34461503
C       -0.29631796       0.57555333       2.63244575       0.19685300      -0.09017831       0.17435558       0.61940426      -1.59048605      -0.03428957
H       -1.02912572      -1.31899572       2.23604630       0.30592343      -0.10000442       0.12844601      -0.91073895      -0.80338240      -0.36589015
O        0.43368972       0.98605690       3.50873476       0.45919583       0.63762749      -0.84192495       1.14389253       0.16369353       0.46832350
N       -1.38218289       1.24268936       2.28189091      -0.11908063      -0.11012189      -0.98426951      -1.84645557       0.03248232      -1.16914499
H       -2.16655337       0.81411499       1.76477868       0.04388105      -0.10469422       0.23291622       0.79681635       0.62264752       0.20935012
C       -3.08243465      -0.80199700      -0.59655142       0.56504652       0.04236805      -0.25884904       0.98613231      -0.69422249       0.39567706
O       -2.57449472       0.22724686      -0.19248104      -1.28169346       0.32566001       0.44936898      -1.11313558      -0.63472265      -0.40923399
S       -3.81079903      -2.03307798       0.56311274      -0.42644810       0.25249874      -0.28928670       0.56395970      -0.39696504      -1.25860973
H       -4.16528648      -1.21952824       1.53232452       0.35257503      -0.49947266      -0.19269176      -0.08970780       0.74390221       0.51808411
C       -2.99098092      -1.25812709      -2.05752908       0.70731365      -0.63996006      -0.05785143      -1.69745207       0.23298120       0.93888080
H       -2.19243427      -0.69976475      -2.45818995      -0.26141303      -0.14546350       0.04925261       1.10486579       0.65075165      -0.82884610
H       -1.51883804       2.03860360       2.86740226      -0.02373755       0.06889614      -0.18500791      -0.51600677       0.66619205       0.17609915
H       -3.92325681      -0.97068939      -2.55177038      -0.13489068       0.06258980      -0.01137741      -0.02744578       0.28596374      -0.07938199
H       -2.89954643      -2.31477697      -2.28094368      -0.01662692      -0.01156426      -0.06839174       0.30570912      -0.33074287       0.66342723
