22
Properties=species:S:1:pos:R:3:momenta:R:3:forces:R:3 energy=-30133.624357534107 pbc="F F F"
O       -2.86428585      -2.25289506       5.02249824       1.18742978       0.34812201       0.49686308       0.15936816      -1.99269985      -1.42104185
H       -4.29172096      -2.31311164       5.98871371       0.03483413       0.18282381       0.03525024      -0.17229593       0.66384046       0.07848877
O       -3.00389421      -1.36188968       3.92161390       0.39149481      -1.76765077      -0.73054770      -0.16996984       0.09485620       0.21730090
H       -2.24670880      -0.78130261       4.06334947      -0.18154380      -0.19133537      -0.24621557       0.25734311       0.40477681      -0.04702151
H       -2.69672975      -3.10255661       4.49151311       0.13886940       0.14458475      -0.16532663      -0.35819268       1.31105065       1.42523265
H       -4.44254122      -0.49885922       4.00242706       0.01761220       0.09106879      -0.00523395       0.98232435      -0.36115893      -0.21956900
S       -5.34581990      -1.55805490       6.49371315      -1.16548191      -1.22495387       0.66538187       0.16399077       0.39452237      -0.96999264
S       -5.70154806      -0.10128911       4.07088662      -0.13294229       0.94684830      -1.37835320      -1.05068592      -0.17219573       0.35582251
C       -5.35380021      -2.23088553       8.15714677       1.40014572       0.48811321      -0.00139364      -2.00551081      -2.36611462       0.04271918
H       -6.39804892      -2.14381755       8.62250551      -0.07845711      -0.16752285      -0.11915227       1.22370160       0.36645424      -0.85373849
H       -5.26784453      -3.33061426       8.04014592      -0.21629264       0.00710888       0.21921943       0.04666470       0.30210161       0.01592893
C       -5.59095248       1.13193964       2.72583039      -0.42012155      -0.19808091       0.52825302       0.03605262      -0.59789413      -0.87838036
H       -6.56040887       1.20339984       2.21627412       0.05645796       0.01238937      -0.01610352       0.03059863      -0.67683566      -0.08124612
H       -4.84875338       0.76499628       1.91807988      -0.23036640       0.22289488       0.27336215      -0.81216657       0.97900867       1.48027635
C       -5.44995626       2.50169428       3.36350024      -0.14368311       0.71721048       0.58067558       0.28325409       1.59004831      -1.18184912
H       -4.77822213       2.51984403       4.21622761       0.26919953      -0.30563572      -0.09249053       0.73982602       0.17271166      -0.17830086
H       -5.19666350       3.28356824       2.55885971      -0.08693670      -0.04605044       0.24720302      -0.03681183      -0.97973096       1.32915449
H       -6.40213684       2.82365776       3.80649642       0.05041966      -0.14651858      -0.01487082      -0.11806038      -0.23310310      -0.24146003
C       -4.33476277      -1.75494030       9.12289463      -0.90348597       0.45434791      -0.14010854      -0.28249454      -0.02656834       0.67392629
H       -4.65104011      -2.23458232      10.07664822       0.41584266       0.04834784       0.04655910       0.80502141       0.53468531      -0.20582230
H       -3.30772834      -1.99521619       8.84529382       0.00214375       0.24676307      -0.11801619       0.05962209      -0.20054138       0.08238760
H       -4.43717649      -0.68573938       9.16015015      -0.40513767       0.13712537      -0.06495400       0.21842092       0.79278630       0.57718456
