23
Properties=species:S:1:pos:R:3:momenta:R:3:forces:R:3 energy=-34120.35641479744 pbc="F F F"
N       -4.12419049      -0.01013337      -0.50281126       0.67776901       0.28394187       0.50970749      -0.18844575      -2.00238132       0.80985558
C       -2.84019127      -0.36633142       0.13944334       0.42150881      -0.45285136       0.27109193       0.27368462       2.93649554      -1.18736148
H       -3.96521682       0.73019625      -1.14844503      -0.32961017      -0.13651948      -0.02715608       0.36930743       1.04923916      -0.49516055
H       -4.27510032      -0.81254047      -1.10333334      -0.01380912       0.08965954       0.06117460      -0.81179231      -0.08619760      -0.23087123
C       -2.62534378       0.70874027       1.21109725       0.40063389      -0.47615170      -0.36624337       0.11592790       0.51711625      -0.91862386
S       -0.95838241       0.76932514       1.88986742      -1.77289067      -1.58899762      -1.12670388       0.61249289       1.02148194      -1.01938794
H       -3.42075223       0.56931132       1.96885363      -0.12496616      -0.08161445       0.09249267       0.46366179       0.46878034      -0.32136667
H       -2.70981429       1.69016483       0.64632761       0.04071413       0.12640133       0.14793174      -0.13083965      -0.98910183       1.01685417
H       -0.92484918      -0.14785690       2.81408189       0.04832418      -0.13304767      -0.16072270      -0.42229406      -1.32417024       0.85062761
C       -1.84052419      -0.33938200      -1.02800730       0.04112734       0.43135266       0.36497524       0.55826110       0.26051071      -1.53096318
H       -2.85495581      -1.29364410       0.60846029      -0.07207285      -0.21157308       0.15397038      -0.27823687      -2.08042121       0.69350863
O       -1.38437263       0.67600372      -1.53508307       0.65331710       0.51761692       0.28624225      -0.00075679       0.79253453       1.13221002
N       -1.69340664      -1.48810547      -1.74301682      -0.01894396       0.25669442      -0.54551616      -1.70956445      -2.06150055       1.83623183
H       -2.20529800      -2.33627270      -1.43408785       0.14975851       0.43992065       0.32989860       1.00115061       0.71324921      -0.39528918
C       -0.29097908      -2.42755311       1.49052784      -1.69923793       0.63964803       0.00200176      -0.76615318      -0.38775261       0.61524198
O       -1.17391056      -3.01050893       0.89129443      -0.25478132      -0.24336076       0.34443445       0.14490309       0.59461075       0.56515938
S       -0.30485275      -2.25150692       3.30390166       1.90175534       0.08417858       0.54806580      -0.40478961      -0.02862149      -0.21612608
H       -1.54628328      -2.76136458       3.44077108       0.22786182       0.08535593      -0.04826446       0.29241037       0.10613553      -0.07381985
C        0.95837203      -2.00458876       0.83884532      -0.23262368       0.67913857      -0.40266921       0.59968030      -1.03477621      -3.18120027
H        0.66908546      -1.95514910      -0.29251770      -0.18606834      -0.07095775      -0.26696244       0.94394714      -0.19046894       1.90571177
H       -1.07149038      -1.55715198      -2.51996208       0.25001841      -0.03559565      -0.44688005       0.30662021       0.30997679      -0.33068764
H        1.77160686      -2.75612992       0.99917677      -0.08780260      -0.16396279       0.36168558      -0.80134887       0.13764049      -0.27606678
H        1.43661009      -1.09330859       1.09545676      -0.01998176      -0.03927593      -0.08255462      -0.16782598       1.27762127       0.75152373
