22
Properties=species:S:1:pos:R:3:momenta:R:3:forces:R:3 energy=-30132.950629554438 pbc="F F F"
O       -3.72305101      -0.53577175       3.31100374       0.30219478       0.40549349       0.77241450      -1.54273710       1.16256139      -2.46383177
H       -3.76514662      -1.14700534       4.68453746       0.16689223      -0.09233635       0.03423109       0.23434484      -0.61445555       0.46304606
O       -4.68629671       0.56988156       3.32979768      -0.11533407       0.31388879       0.18536344       1.83073767       0.36087343      -0.09273071
H       -4.08809762       1.38455465       3.31280866      -0.12481589      -0.23002363       0.07320074      -0.78990138      -1.37565088       0.02664229
H       -4.11756940      -1.09193104       2.56711333       0.01571728      -0.10891260       0.21150190       0.62330729       0.49094397       0.93604553
H       -5.42230253       0.53984809       4.81969997      -0.29732498      -0.02864661      -0.05568377      -0.38374945      -0.11169567       0.52988262
S       -3.83802738      -1.44295652       5.99290336       0.28730904      -1.14835150      -0.05199871       0.69100689      -1.17889330       1.28805899
S       -5.97990121       0.25339980       6.05064820       0.55748485      -1.80171165      -0.27593653       0.07164479      -0.34585404      -0.99056220
C       -2.69048037      -2.98313271       6.02915889      -0.14620131       1.40264885      -0.94109454      -1.87241805       2.00396204      -0.69216603
H       -2.96273513      -3.40425894       6.97443967       0.16046296       0.17202656      -0.15809702       0.70482111      -0.16595533       1.14651275
H       -3.14972566      -3.68867613       5.37538631      -0.11364373       0.30389765       0.04901862      -0.13923605      -0.46831325      -1.17396295
C       -7.71391185       0.56808788       5.57349323       0.36566620       0.38606417       0.14363554      -1.24491239       0.01807160       0.24514504
H       -7.83975641       0.94928305       4.52029708       0.34766512      -0.03082550      -0.08628759       0.56595206       0.26929736       1.21307075
H       -7.99047770       1.29850085       6.37853711       0.10444947       0.03198726      -0.17757075      -0.40418908      -0.27280474      -1.19637370
C       -8.66042372      -0.66061676       5.61689297      -0.73117942       0.05151257      -0.73093265       1.06860685      -2.27758479       0.71353364
H       -8.74026259      -1.21640499       6.58600896       0.10805525       0.16273575       0.32318240       0.21590386       1.06542754      -0.17230499
H       -9.67554342      -0.48132061       5.30707365       0.28362145      -0.12967108       0.01964339      -0.52912343       0.70152211      -0.21022063
H       -8.33481282      -1.53133655       4.98578779      -0.23126375      -0.07235044       0.41192903       0.21011198       1.09576035      -0.07269637
C       -1.26618316      -2.59088289       5.71824175      -0.80523321       0.64956156      -0.10098545       0.58204532      -0.86392379       1.38295341
H       -0.74420916      -3.53831831       5.35826993      -0.02388134      -0.10796040       0.28043254      -0.18665646       1.56241333       0.18584071
H       -1.23358274      -1.71355179       5.04271659      -0.13932862      -0.03450066      -0.05863112       0.22101155      -0.79162163      -0.05577204
H       -0.82900772      -2.25983596       6.70135925       0.02868859      -0.09452573       0.13266447       0.07342917      -0.26408011      -1.01011026
