23
Properties=species:S:1:pos:R:3:momenta:R:3:forces:R:3 energy=-34121.22540851306 pbc="F F F"
N       -0.36863195      -1.95987369       0.52391242       0.10182237      -0.29375533      -0.47645971       0.17617176       1.81713569      -0.57969129
C        0.66233765      -0.92852652       0.70241632       0.30449855      -0.18543666      -0.26017743      -0.32835808       0.97551984      -0.94260848
H       -0.46405344      -1.99590189      -0.49502019      -0.03806490       0.05989673       0.09604991      -0.17736496      -0.31384456      -0.01384144
H        0.07627832      -2.78366777       0.81418689      -0.03613244       0.02885762       0.05312857       0.41767344      -1.89309406       0.32331520
C       -0.02359931       0.37458939       1.13595712      -0.42094126      -0.01722602      -0.22401640      -0.29672581       0.58573842       0.85195512
S       -0.76623993       0.27701327       2.82711614       0.96212963      -0.16031488      -0.19612567       0.33959860       0.43062333      -0.55273522
H       -0.79338227       0.73594854       0.43659389      -0.00039128       0.15835663       0.15829685       0.08795109      -0.51830870      -0.02626193
H        0.65787709       1.22458071       1.22993784       0.10572428      -0.02454129      -0.11414997       0.38190857      -0.18780360      -0.11450215
H       -1.40394937      -0.85995811       2.62680129       0.00150462       0.04696636       0.14320825      -0.43404419      -0.61744807      -0.07988719
C        1.40383331      -0.65819835      -0.64357573      -0.16211513       0.11441181       0.00111849      -0.10264156       0.03222078       0.15074629
H        1.41960313      -1.20875177       1.42517329      -0.20132981       0.02331798       0.09352756       0.06054180      -0.11685467       0.52754420
O        0.94299249      -1.01235529      -1.71427107      -0.12137108      -0.19469802      -0.23431161      -0.33724478      -0.23535456      -0.01699436
N        2.56415083       0.06073192      -0.59774669      -0.26791276      -0.33286453      -0.01942075       0.15172049      -0.06418949       1.43424797
H        3.08974224       0.17432637       0.28545611      -0.10023713       0.02555490      -0.04828115      -0.50346267      -0.10418572      -1.01405156
C       -4.40860491      -1.14028303       0.97395343       0.50490009      -0.09474293       0.41651206      -0.54229445       0.42254974       0.25159195
O       -5.44786602      -0.85109699       1.51857451      -0.18849045       0.09261659       0.06531100       0.24926281      -0.28009760      -0.02308106
S       -3.55673688      -2.64394462       1.41335794      -0.37528825       0.70717982       0.37919280       1.04996933       0.27768098      -0.55440304
H       -2.40706278      -2.30696600       0.71109242       0.02461718      -0.08547492      -0.00681242      -0.73404950      -0.41531745       0.59939688
C       -3.80889207      -0.25656016      -0.09484738      -0.03473765       0.18709259       0.20530096       0.77765608      -1.20687211      -0.63297820
H       -3.63930025      -0.85444693      -1.05829715      -0.22367488      -0.01668304       0.00701108      -0.14531291       1.04028475       1.25271320
H        3.06924960       0.06683456      -1.46646020       0.03781506      -0.18385749      -0.08097356       0.31231874       0.12588680      -0.13124329
H       -2.86822588       0.16786060       0.29124453       0.09722641       0.12490973       0.05165640       0.04800485      -0.24622309      -0.26611820
H       -4.50006115       0.55382220      -0.21645299       0.03044883       0.02043502      -0.00958520      -0.45127875       0.49195358      -0.44311330
