23
Properties=species:S:1:pos:R:3:momenta:R:3:forces:R:3 energy=-34120.33851679164 pbc="F F F"
N       -0.19820063       0.65320176       0.51053768       0.15457896      -0.41364009       0.15491879      -1.57477129      -0.58996314       0.52561492
C       -0.42768482       0.01563726       1.76228034       0.91747940       0.16077407       0.14621941      -0.85681170      -0.42145559       2.74531269
H        0.69556734       1.02543106       0.57087871       0.03268805      -0.01183940       0.31252653       2.32506299       1.05987692      -0.52815759
H       -0.29202211      -0.04464703      -0.18666917      -0.27226769      -0.05468398      -0.01583357       0.14139573      -0.31261978      -1.14600277
C       -1.80036906       0.67175322       2.37621905       0.30858982      -0.46064563      -0.13378629       1.64561856       0.06436772      -1.28172684
S       -3.35218702      -0.02766466       1.68071258       0.51788452       2.04258063       0.39628678      -0.15538707       0.61167930       1.42869050
H       -1.69697074       1.76838999       2.03927797      -0.25267262       0.10372544       0.06209057      -0.31893358      -1.51409543       0.98747224
H       -1.82303219       0.51772778       3.46577201      -0.20038899       0.01111879      -0.33085718      -0.11360201       0.36921549      -0.21025789
H       -2.85678267      -0.54502558       0.59327081      -0.00632337       0.09260944       0.00019752       0.62183550      -0.24196379      -1.08752253
C        0.78904215       0.32759501       2.79502223       0.32585888       0.35629302       0.45978991      -1.58344162      -2.26730227      -0.07691836
H       -0.50431469      -1.13685747       1.69242071      -0.21014390      -0.00436647      -0.24684257      -0.14303142       1.57099569       0.08725026
O        1.59129165       1.21334281       2.60137238      -0.48994057       0.62458707       0.79822937      -0.22713321       0.05013951      -0.02091938
N        0.89544281      -0.52713317       3.91908053       0.12936829      -0.84205295      -0.26494468       1.21592093       3.98302603      -1.59748030
H        0.51107121      -1.39071862       4.15158345       0.12715373       0.24158475       0.26756416      -1.02821219      -1.48729551      -0.09528784
C       -1.92603667      -2.29556807      -1.49764193      -0.74339528      -0.64610076       0.75836312      -0.44870739       0.58599170      -0.37352059
O       -1.93520359      -1.09437311      -1.28902744      -0.45102907      -0.18922323      -0.49071348      -0.33059984      -1.08165789       0.57571101
S       -2.99037092      -3.46327026      -0.49969311       0.83905131      -0.32480500      -1.45873680       0.96570906      -0.01827117      -1.34431598
H       -2.83308260      -4.58181133      -1.29711324       0.23547359      -0.11874706      -0.19460272      -0.01529346       0.90524763       0.60155994
C       -1.06601649      -2.80120834      -2.63516114      -0.58380842      -0.29046352      -0.21654585      -0.08657785      -1.26868725       0.21482828
H       -1.02856212      -2.09753169      -3.45781007      -0.08515564      -0.33280666      -0.07464442      -0.46882221       0.23180163      -0.16182980
H        1.63451011      -0.14069004       4.49231727      -0.02318125       0.04510360      -0.12870200       0.02696520      -0.59203106       0.39180627
H       -1.31335080      -3.81779409      -2.97606391       0.08501334       0.02360536       0.07352606      -0.14033046       0.38696206      -0.06200501
H       -0.04516214      -2.86038848      -2.28853960      -0.35483389      -0.01260739       0.12649813       0.54914737      -0.02396038       0.42769855
