20
Properties=species:S:1:pos:R:3:momenta:R:3:forces:R:3 Coordinates=T from=T ORCA-job=T int=T E=T -1253.934929368563=T energy=-23251.745327829085 pbc="F F F"
N       -0.28743192       0.78179015       0.74386821       1.29107497       0.01830495      -0.04948603      -1.17400154      -1.84231236       0.78550062
C       -0.46560486      -0.36285877       1.71812705      -0.79242063      -0.50611504      -0.58617611      -0.31926292       0.33136928       0.92374861
H       -0.83351482       1.58939496       1.12145863      -0.01291789      -0.00560172       0.24734500       0.19947028      -0.27930957      -0.25230241
H        0.72331818       0.92266648       0.60567025       0.09576453      -0.37021818       0.16225343      -0.14593841      -0.84170034      -0.61468666
C       -0.57345396      -1.73012451       0.97873291       1.49294969       0.50331541       0.25064812       1.92523062       0.99801332       1.19135535
S        0.20733969      -1.35556373      -0.60957994      -0.99960307      -0.00966080       1.38308727      -0.44152127       1.44979560       0.54448389
H       -1.61557702      -1.97757568       1.01268726      -0.02260862      -0.04569466      -0.02303705      -0.62080973      -0.88620305      -0.67687190
H        0.08364320      -2.45610740       1.53691965       0.08908425       0.02549983      -0.37190314      -1.02649796       0.37963673      -0.67639226
C       -1.65773663      -0.06543222       2.69680637      -0.38769333       1.61191280      -0.25898237       1.08751202       0.19886307      -1.62240553
H        0.43802681      -0.43352986       2.30609432       0.08068061      -0.12872155      -0.22756655       0.22660613       0.32267603       0.20982155
O       -2.18314787       1.03903843       2.79255265      -0.04476044       0.29333403      -0.80303848       0.73800421      -0.72494036      -0.30744994
N       -2.09667645      -1.17142435       3.33635586      -0.97541645       0.01159684      -0.15778624      -1.22808933       1.01515460       0.56971478
H       -1.60637045      -1.99970411       3.57583152       0.03063728       0.19735544      -0.07016491       0.83738220      -0.49568146      -0.16435990
C       -0.64127403       0.36122383      -0.59951120      -0.24830905      -0.38573488      -0.25660181      -0.49721668       2.19297304      -1.59904990
O       -0.20107672       1.23116177      -1.42806552      -0.16224886      -1.30318216       0.56680346       0.65919662      -0.95491672       0.41428995
C       -2.17549134       0.24188746      -0.98692426       0.34911425       0.23533376      -0.29891101       0.15999508       0.70058846       0.40918493
H       -2.13297703       0.09494508      -2.06136713       0.17378193      -0.14304195       0.10407302      -0.10106853      -0.13589932      -0.14658237
H       -2.79063538      -0.88484951       3.99642704      -0.02873075       0.12141455       0.15591265      -0.62533247      -0.31388551       0.57857275
H       -2.66600287       1.22690986      -0.81626398       0.03607841      -0.24066325       0.11578333       0.52859104      -0.48442549      -0.00447875
H       -2.77136592      -0.52704499      -0.52969301       0.03554377       0.12056567       0.11774666      -0.18224947      -0.62979662       0.43790686
