23
Properties=species:S:1:pos:R:3:momenta:R:3:forces:R:3 energy=-34120.13071038032 pbc="F F F"
N       -1.08981771       0.63296101      -1.23354346       0.84522910       0.13466970       0.88255691       0.15080984       0.94810373      -2.03466439
C       -1.72154498      -0.39697056      -0.52852916       0.73046447       0.13819449       0.49513177      -0.60990667      -1.89029324       1.31912839
H       -1.66403634       1.43271482      -1.06712911      -0.14397216      -0.09552714      -0.10833677      -0.07539500       1.19101632       0.36549771
H       -1.30141208       0.50799981      -2.23628140       0.00805619       0.08121346       0.06928731       0.51607800      -0.42117038       0.27160850
C       -0.75532419      -1.61560226      -0.32104220       0.59669055       0.49698064      -0.95492281      -0.97528446       1.36823010       1.73129261
S        0.75292411      -1.11805982       0.62960840       0.04972221       0.23267165      -0.18550944      -1.12964209      -0.23071596       0.00342146
H       -0.48552199      -2.02155522      -1.26605553      -0.33542545      -0.23570295       0.21038006       0.50755727      -0.43118116      -0.95618594
H       -1.30302070      -2.33614542       0.29391665       0.02902010      -0.16946858      -0.00554688       0.35999382      -0.25418055      -0.32574791
H        0.09886529      -0.21256232       1.41829273      -0.01563325       0.05716418      -0.02042564       0.27803034      -0.00791582      -0.17400875
C       -3.06610298      -0.86777536      -1.15602782      -0.37859321       0.37144644       0.22803553       1.66146660       0.64603317       0.62334132
H       -2.01825004       0.03275459       0.43598806      -0.19883724      -0.18960601      -0.05812779       0.43633559      -0.34314153       0.39427534
O       -3.26256367      -0.58403478      -2.31205816       0.38600066      -0.16039200       0.07847218      -0.85551465      -0.17873213      -1.16375637
N       -3.88219646      -1.56380856      -0.33734940      -0.24816206      -0.07986312      -0.06267944      -2.18645954      -0.47376612       0.15813498
H       -3.81135148      -1.50526969       0.67366367       0.52815837       0.16957001      -0.33158248       0.59753758      -0.05561617      -0.17160493
C       -1.20520478      -1.46126338       2.81894036       0.45310259      -0.80349038      -0.33620213       1.82742028       0.25555083       1.39850435
O       -2.16749763      -1.86196339       2.24147764      -0.34201862      -0.19219020      -1.09585960      -0.53597313      -0.40525407      -0.26069406
S       -0.89627668       0.32776169       3.08997006      -1.85280233       0.47004487       1.49268830       0.93647045      -0.36350670      -0.48711566
H       -2.13126057       0.69553230       3.28983292       0.31170888      -0.24989046       0.33643827      -1.12964451       0.20263164       0.12840001
C       -0.14439384      -2.27988275       3.63851147       0.05145212       0.07625269      -0.38727639       0.04172784       1.88978481      -1.04882991
H       -0.45407054      -2.17884735       4.68583728      -0.23199008       0.17521688      -0.10370993       0.38906968      -0.14997257      -0.07895637
H       -4.86385629      -1.71169352      -0.64319007      -0.01684426      -0.23684800      -0.09768822       1.20068347       0.13903399      -0.00568855
H        0.87269236      -1.83626125       3.43708835      -0.27593717      -0.17313859      -0.13975068      -1.03372908      -0.22064331       0.56883776
H       -0.08999518      -3.28490612       3.30633501       0.05061168       0.18269245       0.09462856      -0.37163165      -1.21429539      -0.25519010
