22
Properties=species:S:1:pos:R:3:momenta:R:3:forces:R:3 energy=-30131.90665403153 pbc="F F F"
O       -6.82933202      -0.33683956       6.53685823      -0.79042168       0.96733934       0.19844883       1.88401759      -1.63991245       0.59455757
H       -5.50430368       0.05989309       6.00886309      -0.10641151      -0.11583043      -0.11271313       0.30843803       1.10383591      -0.37504272
O       -6.52812480      -1.76661881       6.64336093       0.42142648       0.01774763      -0.36930959       0.13576229       1.33245167      -0.57036233
H       -5.99619826      -1.80693676       7.46275739      -0.06379940      -0.14302195       0.05284892       0.06898724      -0.08900629       0.18681517
H       -7.75671156      -0.38460001       6.35707795       0.17043671      -0.10607731      -0.05883502      -1.68978691       0.28773487      -0.41182718
H       -5.53551675      -1.89059436       5.43627665      -0.03594009      -0.00858259       0.09156301      -0.27952750      -0.78618326       0.19563604
S       -4.43776809       0.56779057       5.23031744      -0.73211223       0.23390169       0.44735390      -0.50187274      -0.76104970      -0.05420221
S       -4.67193903      -1.88070283       4.37467016      -0.07583350       0.44042522      -0.17477580       0.76227232       0.97598751       0.28005845
C       -4.61676234       2.38684590       5.60019243       0.21997834      -0.28620134       0.21240969       1.71862304      -0.77824628      -1.05572045
H       -4.81577568       2.89748549       4.65526527      -0.00989321      -0.03731084      -0.27855701       0.19941422      -0.14035553      -0.28272423
H       -5.49694202       2.54155741       6.15511521      -0.15499491      -0.28785182      -0.07716568      -1.13208044       0.15924779       1.26091290
C       -4.51256381      -3.68229846       3.94605142      -0.43603845      -0.08601871       1.18344638       2.16777277       2.55827808      -0.08403343
H       -4.21320618      -3.66304666       2.92359951       0.08166730       0.29288815       0.27264077       0.20421162       0.20070019      -1.03260338
H       -5.47562387      -3.97702000       3.94912574      -0.01577507       0.17502592       0.08571265      -3.40002894      -1.66697431       0.15257852
C       -3.54972646      -4.51379127       4.72141514       1.12822573      -0.85929942       0.47434455       0.47424257      -0.17661346       0.79853380
H       -4.10231757      -5.15184241       5.37274289      -0.08473300      -0.20592650      -0.10081423      -0.47092962      -0.92055178       0.58036214
H       -2.95161906      -5.13567125       4.05775863       0.33812820      -0.11310489       0.18300086       0.16304946      -0.08325976       0.00334722
H       -2.89562774      -3.97650903       5.40819442       0.15263971       0.02755721      -0.08909833       0.24894013       0.39091265      -0.31013808
C       -3.33891987       2.95207599       6.25727813      -0.57814933      -0.05488765      -0.70738907      -1.06607890      -1.03578126       0.78524321
H       -3.36913763       2.75930580       7.34133014       0.20961498      -0.08572418      -0.39060211       0.51676297      -1.02424920      -0.21942309
H       -2.38393481       2.65131483       5.77391165       0.12579915      -0.09972231      -0.47457010      -0.70811927       0.35010573       0.37499404
H       -3.50309820       3.99322502       6.34890002       0.23618574       0.33467589      -0.36793874       0.39592996       1.74292886      -0.81696206
