23
Properties=species:S:1:pos:R:3:momenta:R:3:forces:R:3 energy=-34120.31276196987 pbc="F F F"
N       -4.20750148       0.99315658       0.75587031       0.31079845       0.87016062       0.06862759       2.32768273       0.46886265       0.91224587
C       -3.51550472      -0.19112247       0.25463945       0.89692769       0.29517231       0.85835294      -0.50728911       0.14519012       1.97978532
H       -3.54762868       1.79445499       0.65503679       0.20175299      -0.11339221       0.05173771      -0.55710524      -0.80186707       0.22372447
H       -4.95494909       1.23936033       0.17570796       0.15193348       0.24132882       0.29757575      -1.51806438       0.27777618      -1.28361356
C       -2.71005848      -0.80981400       1.39986222      -1.04541339      -1.37407531      -1.11187159      -0.48381585       1.25577819       1.38141131
S       -1.18991810       0.19327592       1.79564673       0.70041862      -0.53124994       2.59118741      -0.74018057      -0.39523187      -0.11821536
H       -2.41180629      -1.78897924       1.12572605       0.20702329       0.16835914      -0.26271454       0.58230984      -1.21230078      -0.08839809
H       -3.43029430      -0.87367869       2.28047188      -0.05859616      -0.20672418       0.06026165       1.17699981       0.17567335      -0.87786341
H       -0.77335857      -0.56582264       2.83210679       0.20325240       0.19139179      -0.19345066      -0.09590752      -0.03928120      -0.18063046
C       -2.66735412       0.07109893      -0.93879940      -0.08048195      -1.20581356      -1.02872008      -0.28299421       0.25601149      -1.66295731
H       -4.27452167      -0.93508995       0.09761264       0.02487429      -0.05841382       0.00245761      -0.59510952      -0.56629848      -0.64105797
O       -2.43097695       1.22831761      -1.22144578      -0.86504830      -0.47046676      -0.15792602       0.65465224       0.33043852      -0.51706201
N       -2.36981729      -1.00596858      -1.75755409      -1.06310582       0.72642823      -0.48121425      -1.69987786      -1.98298824       4.91845751
H       -2.18601252      -1.88555269      -1.17218417      -0.06641799      -0.16676666      -0.05528947      -0.03968963       1.50689924      -1.77554393
C        0.39905386      -2.25160802       1.07091438       0.23106892       0.98879000      -0.27303970       0.58407345      -0.90631399       0.05624726
O       -0.31380795      -2.80576210       0.26456387      -1.28673681       0.62482597      -0.50124364       0.10779051       0.93720418       1.10838401
S        0.35161986      -2.58018765       2.97114576       1.17085639       0.36423239       0.09531018       0.79740582       2.04020427      -1.14987327
H       -0.23412429      -3.71333259       2.93952228       0.20514379      -0.08380944       0.02757607      -1.07021320      -1.80545378      -0.20158172
C        1.72349215      -1.55583682       0.70866900       0.39944673      -0.08846286      -0.82950672      -1.51466739      -0.84751213      -0.54455626
H        2.34394444      -2.42486249       0.47437018       0.30079996      -0.04399198       0.34751573       0.50639939       0.25046831       0.12249095
H       -1.80872727      -0.83546543      -2.51192807      -0.26890963       0.00749086       0.00995099       2.02431417       0.50528520      -2.29756761
H        2.07399926      -0.96999839       1.52211121      -0.12670202       0.07216498       0.24385475       0.58913630       0.40076095       0.80322379
H        1.62860874      -0.94202187      -0.18392418      -0.14288577      -0.20717805       0.24056816      -0.24585006       0.00669492      -0.16704851
