20
Properties=species:S:1:pos:R:3:momenta:R:3:forces:R:3 Coordinates=T from=T ORCA-job=T int=T E=T -1253.934929368563=T energy=-23252.60406509442 pbc="F F F"
N       -0.05052566      -1.24192919       0.90471996       0.68925736      -0.47667584       0.85690779      -0.71239101       0.40080223      -0.24820772
C       -0.05284516      -0.33312883      -0.27258480       0.48307354      -0.38150822      -0.00117752      -2.21227479       0.09628034       1.34581208
H        0.50302903      -2.03824938       0.60625485       0.12433687       0.00855511      -0.24959925       0.15946294      -0.21465172       0.48393789
H        0.41556729      -0.73267103       1.66348723       0.07767716      -0.07958476      -0.28647658      -0.15852276       0.54992478      -0.16853646
C       -0.74426751       0.93154569       0.19115527       0.14774071      -0.26530388       0.44904502      -0.41280201       0.27937376       0.26102558
S       -0.41012616       1.27890637       1.90910357      -0.82530223       0.73103088      -0.34885829       1.17430127      -0.20634668       0.22517774
H       -1.80161622       1.02885104       0.07361196       0.04573647       0.07811462       0.04223288      -0.89747882      -0.89494038      -0.31831992
H       -0.43065163       1.77273543      -0.35365442       0.12024895       0.32328208       0.33130163       1.06270576       1.37510228      -0.88962936
C       -0.77206916      -0.98867525      -1.44129227       0.00097266      -0.23276386       0.21592865      -3.98115706      -0.96170115       1.44468486
H        0.90711326      -0.01176078      -0.52310989       0.00045780      -0.09158024      -0.18090298       2.22069478       0.22220406      -0.79711449
O       -2.02483780      -1.06340480      -1.50749890      -0.57045649      -0.12596461      -0.01488813       2.51891232       0.70592117       0.11779966
N        0.02211823      -1.76859683      -2.19275114       0.12021262      -0.90417136       0.13883900       1.11857319       0.13736904      -1.24649620
H        0.90395698      -1.29713527      -2.33572607      -0.26502405       0.01434171       0.15026272       0.51302040      -0.55162752      -0.32874104
C       -1.44696342       0.03228584       2.61852250       0.39414884      -0.04934251       0.73776033      -0.65918739      -0.48680327       0.56728425
O       -1.23388798      -0.38470943       3.74205267      -0.62928688       1.08210820      -0.79030200       0.07122594      -0.06985176      -1.14217949
C       -2.77010690      -0.22820165       1.87529614       0.15958191       0.51269446      -1.26388350       0.74087858      -0.87908447       1.38631487
H       -2.59504902      -0.85262412       1.00926416      -0.02405345       0.13483238       0.08115376      -0.07610098      -0.06055802      -0.32003689
H       -0.39135331      -2.13777473      -3.04627282      -0.31232738      -0.14527682      -0.02642779      -0.04775763       0.09278885       0.22861044
H       -3.24658198       0.70177972       1.64251980       0.09436331       0.04900258       0.16239222      -0.32204762       0.67574489      -0.43479145
H       -3.38997563      -0.74102590       2.61282544       0.16864251      -0.18178991      -0.00330821      -0.10005380      -0.20994633      -0.16659482
