22
Properties=species:S:1:pos:R:3:momenta:R:3:forces:R:3 energy=-30136.754646813566 pbc="F F F"
O       -3.18166212      39.67679150      13.22979046       1.09320975      -0.35465366      -0.04993020       4.28092386       2.65958586      -0.55716932
H       -4.02210588      39.35644411      13.22580689      -0.08811710       0.04812880      -0.05383545      -4.46521594      -1.81353095       0.04150674
O      -48.69802813      -9.42848707       5.30347774       0.10491959       0.10335840      -0.28482539       1.09396977      -2.05559701      -0.56688083
H      -49.23011803      -9.04011716       4.61845076      -0.05994203      -0.08213598       0.19321146      -0.53985929       0.51873356      -0.49910265
H       -3.25552983      40.52462469      12.73729993      -0.28754206      -0.28985243      -0.24737917       0.18429214      -0.84605503       0.51566255
H      -48.35316265     -10.26526505       4.82817086      -0.10970325       0.10346463      -0.29060807      -0.55411047       1.53686351       1.06598343
S        0.88263034      -4.45899807       3.97049959      -0.60986638       0.64082861       1.05042384      -0.31735781       0.64728752      -0.20222804
S        1.48204299      -5.85095271       5.32053946       0.43721593       0.02345698      -0.31052510       0.61409903      -0.25448725       0.77819954
C        2.25519210      -4.28291945       2.79440745      -0.16699520       0.19704815      -0.17674476       0.13347071      -1.17752922       0.36204782
H        2.46486633      -5.24006046       2.30696000       0.17076157      -0.01330512       0.21611598      -0.18006560      -0.03112329      -0.01877642
H        1.78990749      -3.62810208       2.11431098       0.22928960       0.21741143      -0.19936143      -0.68308598       0.80965590      -1.46983218
C        0.41827969      -7.30764944       5.04902560      -0.02855338       0.23982759       0.10702202       1.60583389       0.61237746      -1.48944426
H       -0.53372659      -7.05687243       5.43968793       0.42176563      -0.51731132      -0.09726424      -1.33354282      -0.16861030       0.28931561
H        0.93011790      -8.01851335       5.66693527      -0.12559712       0.17250676      -0.02990918       0.00882432      -0.69323719       0.76796752
C        0.47417932      -7.80445357       3.60030193      -0.63012611       0.13725708      -0.13727551      -1.42342973       0.77606165      -0.10289715
H       -0.07829657      -7.08536806       2.90521615       0.04991708       0.19728143      -0.18336506       0.50080830      -1.21251631       0.81817436
H        1.49714364      -7.84765076       3.26898736      -0.08367164      -0.19741563       0.19399812       0.63701892      -0.04772258      -0.16401234
H        0.07613901      -8.83258225       3.58214271       0.11302491      -0.03711272       0.08887089      -0.18698834       0.37120867      -0.35023934
C        3.51685618      -3.63324273       3.26385007       0.09825022      -0.58260517       0.25970773       0.96892625       1.39627075      -1.20190799
H        3.28615941      -2.59365553       3.58818777      -0.42373157       0.07657084      -0.00029905       0.32699102      -0.77762944       0.54991001
H        4.06564267      -4.25816225       3.95025640      -0.01211442      -0.03964439      -0.28979379       0.18224099       0.14368995       0.78310955
H        4.22755934      -3.46837075       2.39221422      -0.09239334      -0.04310326       0.24176589      -0.85374308      -0.39369628       0.65061319
