20
Properties=species:S:1:pos:R:3:momenta:R:3:forces:R:3 Coordinates=T from=T ORCA-job=T int=T E=T -1253.934929368563=T energy=-23253.076812773677 pbc="F F F"
N        0.61996826      -0.42559122       1.31703456       0.58434865      -0.07974672      -0.35376962      -0.48379867      -1.02979972       0.11109631
C       -0.20800565       0.74282570       1.43730205      -0.06718424      -0.50656705      -0.64190392       0.00438678      -0.96306723      -1.47743869
H        1.04345349      -0.40192033       0.40012031       0.19173012       0.11939436       0.16719198       0.14908919      -0.17885542      -0.33834603
H        0.00583594      -1.24796918       1.38096435      -0.17709104      -0.48943508       0.14183418       0.34394189       0.10017934       0.13711492
C       -1.60726214       0.48846595       0.82053690       0.23902824       1.10421961       0.96283490       1.09060252      -2.46761417       0.49453670
S       -2.37476254      -1.06683783       1.55637503      -0.78677179      -0.47507698      -0.14000749       0.27497200       0.60504409      -0.58294886
H       -1.56451768       0.13150584      -0.19825056       0.03658996      -0.16700731      -0.13561549       0.36186397       0.76707768      -0.69853365
H       -2.21891548       1.32096511       0.93978242       0.09879092       0.02147995      -0.15152841      -1.58594096       1.45912898       0.16234541
C        0.49110889       1.87349309       0.67293169      -0.09867948       0.38644250       0.15704545      -1.82780910      -0.23240125       1.89016616
H       -0.34700479       0.94959855       2.47455933      -0.04104850       0.16957080      -0.15799332      -0.09833002       0.52591795       1.10218084
O        1.06127516       1.68799053      -0.35456037      -0.99052785       0.26751732       0.54840728       1.34811318      -0.44719011      -2.13570023
N        0.28003683       3.06965970       1.24228921       0.26647451      -0.24735592      -0.11855771      -1.02322841       2.03718042       1.19881976
H       -0.31951279       3.08976042       2.10032699      -0.07613070       0.29848743      -0.30666797       0.93093252       0.32732064      -1.40928698
C       -1.87867350      -2.25533912       0.25614433       1.34806179       0.13384787      -0.28047657       1.65542964      -2.21697119      -0.53374587
O       -1.03524057      -3.12226228       0.47919552       0.01428642      -0.17628400       0.09272599      -1.08326674       1.56011498      -0.09281129
C       -2.60278177      -2.27263323      -1.12766568      -0.99692770      -0.25562755      -0.29793788      -0.06710744       3.95740652       2.51953363
H       -3.65318205      -2.08618646      -0.87987865       0.17469862      -0.03434681       0.18464355      -0.11448532      -0.34186387      -0.63247418
H        0.35883848       3.93925378       0.68351221       0.18075543       0.15050984       0.09784343       0.09984933      -0.95227087       0.68096685
H       -2.37812658      -3.07970617      -1.73087140       0.08541944      -0.25398223      -0.18684780       0.32189047      -2.32157326      -0.74315566
H       -2.24123019      -1.39118142      -1.70204850       0.01417712       0.03395952       0.41877745      -0.29710469      -0.18776324       0.34768078
