23
Properties=species:S:1:pos:R:3:momenta:R:3:forces:R:3 energy=-34120.69833777661 pbc="F F F"
N       -2.22006113      -1.49483974      -0.18122437       0.78935915       0.32857893      -0.11988809       3.17232037       1.07857287       0.30283257
C       -1.53015843      -0.27833389      -0.76385697      -0.46353531      -0.73773704       0.94042619      -1.57372761      -0.78293628      -0.97128296
H       -2.90381795      -1.77939487      -0.83541671       0.14665007      -0.06273586       0.02320518      -1.01776683      -0.48423088      -0.98388642
H       -1.45435314      -2.17843622      -0.15049754       0.05858679      -0.03493557      -0.13162249      -0.56907827      -0.16584016       0.07615603
C       -1.66282396       0.81826090       0.22759048       0.49090220      -0.68319142      -0.37436235       0.09241932      -1.42189169       1.58033347
S       -0.51781993       0.57118460       1.59309901      -0.91592638      -0.65403087      -0.06884038       0.42659872      -0.08196387       0.75887942
H       -2.64954239       0.90790201       0.63764126       0.11972060       0.24313084      -0.11809980      -0.74751836      -0.14069580       0.03787262
H       -1.36938912       1.73520004      -0.09454816      -0.14096665      -0.20226235       0.01767748       0.63580108       2.93022275      -1.76116467
H       -1.43764687       0.05597403       2.42088036       0.12349446      -0.12718064      -0.11917283       0.16051668      -0.23665991       0.14064175
C       -2.26104048       0.07093353      -2.09662745      -0.52695820       0.23239777      -0.28657323       0.94860816      -0.45965213       1.26661873
H       -0.47061892      -0.40598579      -1.00982465       0.13935942       0.21653274      -0.05939055       0.08907881      -0.41852298       0.27321273
O       -3.31731470      -0.46779048      -2.31677028       0.54353498       2.22824580       0.56192422      -1.17099953      -0.10948598      -0.78421038
N       -1.66840145       0.94538442      -2.94843774      -0.35081766      -0.78693733       0.27910157       0.92059231       0.06406451       1.77214396
H       -0.68778490       1.18322588      -2.87009458       0.13751374       0.13069530       0.13902724      -0.20068854      -0.05307103       0.05742981
C       -0.27171699      -2.54453501       2.93404998      -0.26105756       0.33404856       0.37848402       0.84013335      -0.17568353      -0.75376725
O        0.24613775      -3.15428801       2.01953204      -1.59025159      -1.48040314       0.66660903      -0.65067232       0.66854632       0.72508460
S       -2.01415214      -2.10194497       2.98032320       0.88493100       0.31449184      -1.21985543      -0.56283090      -0.18700771       0.79929145
H       -2.40543008      -2.44615844       1.74637282      -0.09227968      -0.01909489      -0.02286699       0.40399566      -0.02751344      -0.11219857
C        0.45242664      -2.07949765       4.19358101       0.92259486       0.97813386      -0.65687631      -0.01804644      -0.45491397       0.11633614
H        1.50893793      -2.42087864       4.25275278      -0.02031467       0.07277619      -0.23020638      -0.71081358       0.26202971      -0.35971513
H       -2.06152623       0.94645227      -3.83623635       0.01997987      -0.32541698      -0.13828911      -0.75540155       0.24393009      -2.01449656
H       -0.09705997      -2.46952371       5.05212904      -0.03350819       0.06638270       0.20843464       0.03337173      -0.25161195       0.11250190
H        0.36333600      -0.99979327       4.31720093       0.01898889      -0.03148882       0.33115406       0.25410777       0.20431457      -0.27861324
