23
Properties=species:S:1:pos:R:3:momenta:R:3:forces:R:3 energy=-34118.92243769192 pbc="F F F"
N       -3.12369729       0.60988567       2.77481334       0.08161843      -0.69340858      -0.36018195       1.58861709      -3.11296034      -1.01769269
C       -3.44251360      -0.07432042       1.54847181      -0.19090673      -0.10333771       0.58543996      -0.94257718      -0.00189976      -0.03750760
H       -2.15793665       0.86683377       2.74008450      -0.27023345      -0.37392964      -0.11832405       0.40517339       0.75918829       0.27537104
H       -3.75371976       1.29333659       2.99391816      -0.02353551      -0.45802754      -0.43417192      -1.54906881       2.57603145       0.60566443
C       -2.88868338      -1.49459161       1.60345696      -0.76476797       0.39907722       0.43161302       1.99490190       0.29068658      -0.28625908
S       -1.10709288      -1.44328121       2.26099367       0.16436686      -0.16048569       0.11254894      -1.21771317       1.15182791      -0.57436581
H       -2.88070947      -1.97328786       0.61430277      -0.08272222      -0.27356577      -0.26457933      -0.03113955      -0.13308696       0.51027936
H       -3.33291132      -2.06140764       2.36290292       0.25613498      -0.21469122      -0.46422710      -1.29342270      -1.02566075       0.82866913
H       -0.67555816      -2.56221119       1.74039198       0.20885024       0.12252482       0.24446319       0.85758286      -0.89104126      -0.80275864
C       -2.82255018       0.52592413       0.27382620      -0.55564079       0.24393777      -0.10121474       1.47839260       2.18120074       2.80680275
H       -4.56618880      -0.05795992       1.48314943      -0.13325498       0.06042852       0.00521543       0.88321185      -0.43748930      -0.27175915
O       -1.79670707       1.22971676       0.39313763      -0.24776984      -0.68179444       0.45184509      -1.19291675      -1.06600165      -0.33876210
N       -3.43639898       0.37465257      -0.87811734      -0.44833409       0.54766544      -0.76545084      -0.97216266      -0.62759835      -1.30691791
H       -4.31221076      -0.12692956      -1.04692230      -0.06173536      -0.00359100      -0.23687487       0.76312613       0.18625441       0.24769679
C       -0.01547465      -1.54943146      -0.11885545      -0.30277874       0.10854597       0.35335084       0.97104769       1.35906365       0.32077153
O       -1.07362311      -1.78194967      -0.63610895       0.30576916      -0.15326876      -0.05835181      -0.00823031      -0.05856029      -0.17820054
S        1.02347118      -2.76134377       0.70885443       1.23234784       0.92658669       0.29699896      -0.41086142      -0.96467789       0.62622016
H        1.53141610      -3.44104962      -0.35207095      -0.40552417      -0.10221855       0.13657863      -0.29768157       0.27034634       0.09914271
C        0.75479126      -0.21187948      -0.33264251       0.90290605       0.41022006       0.34330802       0.00444328      -0.09471429       3.28584623
H        1.29362773      -0.35130988      -1.21166372       0.05173355      -0.04089499       0.21319713       0.98329306       0.01662825      -1.92490244
H       -2.78952679       0.55474556      -1.61569331       0.13524972       0.07716966       0.14139719      -0.13157511       0.12683035      -1.12870014
H        1.52795732       0.08329479       0.49531562       0.07711073       0.01342279      -0.40873132      -1.47181237      -0.99345350      -1.27057111
H        0.02788870       0.57611009      -0.36236761       0.07111742       0.34963478      -0.10384879      -0.41062835       0.48908627      -0.46806651
