20
Properties=species:S:1:pos:R:3:momenta:R:3:forces:R:3 Coordinates=T from=T ORCA-job=T int=T E=T -1253.934929368563=T energy=-23251.650231762003 pbc="F F F"
N       -0.02635116       0.39673105       0.27467850       0.57285001      -0.32442437      -0.09962332      -0.23583204      -0.21007205       3.22559362
C       -0.62882853       0.23175004       1.70396114      -0.08334097      -1.24951197       0.07368798       0.38657257       1.56328392      -0.44658065
H       -0.12148187       1.35598560      -0.07334455      -0.17692564      -0.16561103      -0.02746760      -0.24922013      -0.22345525      -0.07282233
H        0.95047485       0.08284700       0.42289040      -0.06605065       0.00889596      -0.02496799       0.09065905       0.14661410       0.23770911
C       -1.03381528      -1.18641932       1.93632979      -0.78130754       0.24802086       0.00817278       0.40719122      -1.32429028      -0.13781248
S       -0.08469610      -2.06202492       0.63982104       0.87820204       0.02660122       0.48725228       0.53550753      -0.59952285       0.40955815
H       -2.10780143      -1.42994843       1.85106012       0.04158625      -0.15527848      -0.26750368       0.30287364       0.30965123      -0.24419069
H       -0.72621931      -1.48153921       2.95866861       0.40571960      -0.27144105       0.24318350       0.00870898      -0.24665314      -0.55523407
C       -1.74833792       1.23864798       1.93712691      -0.31539404       1.17409326       0.27098090      -0.45201117      -0.47775817      -0.92097127
H        0.19160042       0.43215342       2.39713683      -0.40027602      -0.02227392       0.04085618      -0.04077858       0.20312540      -0.20206767
O       -1.89404961       2.19430339       1.19590854       0.44500809       1.07007983      -0.71851977       0.36433154       0.28876400       0.01151601
N       -2.63876548       0.92788711       2.91516976      -0.13293543       0.61953062      -0.97086373      -1.01067853      -0.78789389       1.20112669
H       -2.75057728       0.00138713       3.38830152       0.03883425       0.13778810      -0.09255523       0.55015320       1.41198683      -0.83213681
C       -0.29150485      -0.67183698      -0.63581413       0.12565442       0.13217523       0.65075027      -3.94101248       0.43566627       0.88714973
O        0.46354148      -0.58970400      -1.57874542      -0.42169415       0.39765051       0.28510161       2.30878735      -0.76137650      -2.84813285
C       -1.84160474      -0.66540558      -1.07707469      -0.70027263      -1.21798565       0.02123038      -0.39490414       1.11920738       1.56410599
H       -2.56316368      -0.95718030      -0.28640346       0.05640819      -0.20304241      -0.06445266       0.46499270      -0.39577782      -0.34765393
H       -3.47287881       1.51533432       2.95774999       0.31529174       0.02280701       0.03528727       0.48496813      -0.14836830      -0.01632550
H       -2.07696431      -1.14811277      -2.00708468       0.09654023      -0.11257260      -0.00593178       0.41563064      -0.46942881      -0.40838283
H       -2.05082659       0.40207721      -1.17351324       0.10210201      -0.11550127       0.15538222       0.00405935       0.16629760      -0.50444782
