23
Properties=species:S:1:pos:R:3:momenta:R:3:forces:R:3 energy=-34120.64864131612 pbc="F F F"
N        1.26280818       0.10044020      -0.39295495       0.45974835      -0.33916045       0.21894436      -1.02519155       1.27860785      -0.95106673
C        0.29916093      -0.35077712       0.56543726       0.07033237      -0.14479304      -0.09005568      -1.87270176      -0.02016158      -1.06811547
H        2.13851173      -0.35587895      -0.45113753       0.10662690      -0.26729031       0.17923422       0.88605356      -0.82087392       0.84974194
H        0.86262730       0.03068276      -1.31610900      -0.16071753      -0.15994754      -0.04712933      -0.24555573       0.18112075      -0.28738391
C       -0.86908565       0.77196642       0.73347745       0.16436654      -0.08420787      -0.29868602       1.60135937      -1.99254870      -1.78472519
S       -1.84898890       0.67565404      -0.86651617       0.78826041       0.17028291       1.33277128      -0.10740852       0.34046619       0.92652440
H       -0.34478615       1.72118039       0.76936844       0.19303121       0.07258108       0.09631669      -0.28200033       0.37074453       0.11238320
H       -1.45865309       0.52457160       1.59524536       0.06923125       0.00003387      -0.41103352      -0.54389554       0.18206826       0.29289627
H       -2.84299293      -0.16547284      -0.47828076      -0.16783532       0.22174290       0.19712844       0.48150215       0.28666209       0.00949522
C        1.00776970      -0.66483653       1.83477574      -0.89460593       0.27635298      -0.22214435      -0.14094830      -0.18362480       3.50157094
H       -0.28242301      -1.23482027       0.15170113      -0.15620767       0.06400506      -0.01318994       0.51459289       0.27815509       0.82918662
O        2.20858927      -0.54734434       1.95479729      -0.40465490       0.80743045      -1.24210919       0.36647105      -0.10256968      -0.32318419
N        0.21676007      -0.95312954       2.98541246       0.10442765       1.02951050       0.51261660      -0.17258161      -0.34972554      -1.66087162
H       -0.65257504      -1.47272408       2.83474130       0.05393567      -0.27181029      -0.05554083       0.09162799       0.49056199       0.04598906
C       -3.58166866      -1.85104455       1.37223462       0.77379829       0.16931586       0.09923572       1.94425757       0.64646072       1.36800832
O       -2.68977453      -1.39386182       2.10632984      -0.97672191       0.53554708       1.05792071      -2.24228525      -0.45979351      -0.79167169
S       -3.01434535      -2.94048086       0.07680274       0.30793045      -0.90353589      -0.50261661       0.30486706      -0.71445225       0.54018610
H       -2.09049587      -3.50859467       0.93564593      -0.07554550      -0.11488352       0.11859614      -0.57362503       0.40206781      -0.90290850
C       -5.07147679      -1.60314983       1.51203584      -0.39738243      -0.87794447      -0.30711484       0.48947537      -0.28097403       1.72348845
H       -5.46897343      -1.19166130       0.62591909      -0.16036565      -0.15943598      -0.01442529      -0.49512017       0.11035867      -1.55475593
H        0.67873673      -1.18991296       3.85992784      -0.07915543       0.11592513      -0.43058152       0.32203001       0.10985826      -0.60131496
H       -5.24312851      -0.80093004       2.26493804       0.37937265      -0.00240994       0.11861391       0.20274007      -0.84654307      -0.04750210
H       -5.59950132      -2.56798214       1.76760512       0.00213069      -0.13730755      -0.29675112       0.49633682       1.09413505      -0.22597069
