20
Properties=species:S:1:pos:R:3:momenta:R:3:forces:R:3 Coordinates=T from=T ORCA-job=T int=T E=T -1253.934929368563=T energy=-23252.981093097587 pbc="F F F"
N       -0.03569848      -0.83378302       1.62265904      -0.55199079       0.50691893      -0.29857675      -0.99052546       0.05264026       2.90100657
C        0.23797931       0.12961011       0.56705844       0.08862680       0.34843159       0.01576453       2.99688435      -0.57245195       2.07805109
H        0.67925804      -1.52558479       1.80796730       0.21779108      -0.23413743      -0.24414591       0.48352435      -0.06851637      -0.78134012
H       -0.12030841      -0.36500028       2.60399828      -0.47046515      -0.21345595       0.16097810      -0.41794851      -0.48557301      -2.92435574
C       -0.99623769       0.43148348      -0.12998203       0.98891431      -0.75483339       0.04106451      -2.83016491       0.79225028       0.28337142
S       -2.37689898       0.85463198       1.04249066       0.94723476      -0.99388029      -0.14707547       1.19004668       0.97928251       0.01025199
H       -1.48004643      -0.39335443      -0.61630503      -0.09527685      -0.15924779      -0.45959778       0.49693495      -0.42175660      -1.07607865
H       -0.99758593       1.36394581      -0.67027879       0.03338038      -0.15908442       0.25972320       0.29132771       0.10318910      -0.88319290
C        1.54018440      -0.28253564      -0.24372452       0.36431868      -0.21085079      -0.05114770      -2.10509968       2.11946249      -1.58158588
H        0.55480571       1.01037991       1.13963703      -0.04833537      -0.04115899       0.37683358       0.09387431       0.58285797      -0.50554639
O        2.32399502      -1.06296498       0.17978043       0.40943798       0.68016193       0.71901202       1.48745048      -2.03841853       1.24883664
N        1.74419496       0.38696448      -1.43669670      -0.39017179       1.06883895      -1.29849562       1.33111811      -1.48283541      -0.08901978
H        1.06357665       1.03738477      -1.73083982       0.09246418       0.09786073       0.09012060      -0.62685865       0.64124936      -0.68566382
C       -3.05182965      -0.63516773       1.65691991      -0.19725365       0.39169518      -0.40839530       0.09436483       0.11791151       0.26304818
O       -3.61953641      -0.52945160       2.71803976      -1.17231290      -0.06484925       0.37295456      -0.14530897      -0.65387762       0.15499687
C       -3.05290910      -1.85662447       0.77112164      -0.56454784      -0.07077431       0.82096735      -1.40644383       0.24262774       0.24486363
H       -2.03745196      -1.98901907       0.38719017       0.24733856       0.28707272       0.28169424      -0.23672551      -0.63041633       0.08104897
H        2.45847901       0.01286115      -2.12580322      -0.11898944      -0.20441688       0.02134057      -1.40393949       0.79371238       1.47981977
H       -3.78176362      -1.58702223      -0.06260035      -0.02043605      -0.04025443      -0.08406749       0.97194827      -0.70168519       0.74713409
H       -3.47732561      -2.68894184       1.40672140       0.24027374      -0.23403630      -0.16895226       0.72554123       0.63034725      -0.96564567
