22
Properties=species:S:1:pos:R:3:momenta:R:3:forces:R:3 energy=-30132.561391509094 pbc="F F F"
O       -5.53759400      -1.06179616       7.84392524       0.75828921       0.15517693       0.47329834      -0.43142440      -0.00942788       0.98969519
H       -5.54908182      -0.10724003       6.70504895       0.23390472       0.16917913      -0.04718224       0.11859101       0.84089360      -1.25242198
O       -4.89023045      -2.13812662       7.23323489      -0.00497201      -1.14890275      -1.01785802      -0.76790107      -0.93652816      -0.96800472
H       -4.24101162      -2.41091656       7.85947995       0.39542113       0.20462788      -0.20181992       1.41127682      -0.44361725       1.31649661
H       -6.43777521      -1.42624668       7.93126740       0.02631793       0.06159678      -0.38032016      -0.41556427       0.33200651       0.17784828
H       -4.73668733      -2.41650750       5.70587543       0.11575675       0.13043675      -0.13918239       0.82941044       0.52002661      -1.31403361
S       -5.38693230       0.41947212       5.39592453      -0.89757423       0.10630703       0.30307103       0.69981898      -1.04579998       0.89273445
S       -4.20204728      -1.83096369       4.51708455      -0.97614307       0.38067926       1.35660848      -0.49850598       0.29422344       0.57450041
C       -6.38173844       1.88831958       5.59926675      -0.05114020       1.42450314       0.40334223      -1.59377861       0.40995252       1.78706932
H       -6.79559487       1.88348147       4.59489429       0.12501514       0.17083847       0.15598041      -0.78655988       1.00216234       0.03167535
H       -7.18983096       1.79887002       6.43057896       0.33164192       0.04508162       0.19542538       0.90754479      -0.47908688      -1.75850654
C       -3.58480023      -3.31928317       3.66970474       0.63162833       0.20655863      -0.43119660       0.18653719      -1.13066423       0.81341565
H       -4.46166176      -3.96331292       3.52461823      -0.17583561      -0.29934973      -0.24498660       0.14128914       0.06287819      -0.37219912
H       -2.94807212      -3.88853398       4.38435465       0.15289431      -0.24803346       0.02980577      -0.09363778       0.47419077      -0.42703915
C       -2.85899040      -2.99198768       2.36324709       0.12756584      -0.02578960      -0.11017790      -0.97465312      -1.97726965      -0.63417244
H       -3.62210572      -2.52098569       1.69738933      -0.14300501      -0.14645432      -0.27084099       0.93597877      -0.11659680       0.14132431
H       -2.00096326      -2.37049395       2.54777290      -0.23827327      -0.21835352      -0.13690557       0.35338643       0.57000625      -0.08163040
H       -2.48506412      -3.97792878       1.87973910      -0.01495177       0.41068520       0.04696920      -0.65400803       1.57948756       0.66787940
C       -5.61288159       3.13797309       5.98776091      -0.52762096      -1.08011061      -0.33946063       3.55714178      -1.45596886       0.16700786
H       -5.18108015       3.04647846       7.03500659       0.12939040      -0.16884530       0.25744715      -0.94628775       0.04302861      -0.91096520
H       -4.62932005       3.15884327       5.38640853      -0.03990230      -0.21147558       0.26484095      -1.62893200       0.60538185       0.40171155
H       -6.20375741       4.02279577       5.91800493       0.04159311       0.08164362      -0.16685770      -0.34972233       0.86072183      -0.24238411
