23
Properties=species:S:1:pos:R:3:momenta:R:3:forces:R:3 energy=-34120.941983377925 pbc="F F F"
N       -0.74213503      -1.93723460      -0.60806206      -0.39096506      -0.94516004      -0.29619957       0.07542207       1.94361007      -1.00864589
C        0.51217946      -1.34109936      -0.04345644      -0.21891331      -0.46103182       0.31874743      -1.15919030      -0.69989640      -0.40516528
H       -1.16285482      -1.10328847      -1.12881518      -0.01785080       0.07927051       0.07294845       0.45037556      -1.44901872       0.83795875
H       -0.52989381      -2.55685257      -1.40512265      -0.12737603       0.06698646       0.37290407       0.27448121       0.17792892       0.59809941
C        0.12629501      -0.60590886       1.25809951      -0.38699696      -0.06201072      -0.24827651       0.00207351      -0.86614251      -0.94224590
S       -0.43558881      -1.76366149       2.49519642       0.51627384      -1.11805238      -1.00244052      -0.48731601      -0.50270742       0.58074940
H       -0.66704809       0.10158471       1.08852121      -0.11943668       0.01674022      -0.10351817      -0.31639868       0.59293258      -0.29913560
H        0.97654660      -0.10041142       1.65756111       0.35789556       0.19343872      -0.11365383       0.69105196       0.54803151       0.45467627
H       -1.30167033      -2.43638324       1.70118177       0.16997534       0.05996798      -0.24571399       0.19394747       0.21099331       0.11176710
C        1.19089566      -0.44545615      -1.08567854      -0.48376880       0.74247780       0.18143493      -0.74173403       0.39859447      -0.65846372
H        1.17295008      -2.16233654       0.24440946      -0.15519296      -0.12083977      -0.07458979       0.20632598      -0.01485405      -0.06695186
O        0.61049958      -0.16902486      -2.14773517      -0.33894058       0.88993937       0.67264427       1.06818640      -0.26960364       1.34196031
N        2.43143570       0.03315695      -0.77733881       0.47637328       0.02183306      -0.11084077      -1.03866565      -0.90422064       0.62129325
H        2.88322088      -0.00151414       0.12687671       0.08490639      -0.16150246      -0.30206742      -0.22675349      -0.15552951      -0.17728727
C       -4.19805043      -0.46280806       2.23758813      -0.31865081       0.36513744      -0.14762677      -1.49692053      -0.99873126       0.79366940
O       -4.96929138      -0.99441623       3.01621788       0.58458693       0.56141666       0.05178080       0.84741598       0.51085979      -1.25250685
S       -3.88812277      -1.19815295       0.56121666       0.35592213       0.30073473       0.19348642      -0.43404732       0.28062256       1.04779688
H       -2.98338035      -0.27469973       0.24579206       0.03050763      -0.00032479       0.11388620       0.25995493       0.15077242      -0.26641461
C       -3.37615811       0.72949258       2.61015406       0.06743995      -0.23574497       0.31343609       0.41202211      -0.12336158       0.05111533
H       -3.76231703       1.38466120       3.39920523      -0.04471231      -0.22310662       0.23159029      -0.30296436      -0.64939326       0.10941929
H        2.82853125       0.56330376      -1.49664291       0.05032404       0.09140393      -0.10465489       0.94214582       1.06649280      -1.02881122
H       -3.14896410       1.36917898       1.77921478      -0.11543490       0.01417300       0.10530523       0.25999683       0.29140455      -0.70097560
H       -2.46757787       0.21876008       2.93493816       0.02403263      -0.07574558       0.12141825       0.52059025       0.46121585       0.25809854
