20
Properties=species:S:1:pos:R:3:momenta:R:3:forces:R:3 Coordinates=T from=T ORCA-job=T int=T E=T -1253.934929368563=T energy=-23253.133440505888 pbc="F F F"
N        0.44847086      -0.70189176       0.93872446       0.24325536       0.00291717       0.06077411       1.24063182      -1.05019112      -0.88138886
C       -0.69450134      -1.63045863       0.79908239      -1.20016508      -0.75437230       0.73378166       1.07593393      -0.08558309      -2.65851498
H        1.17609155      -1.11051027       1.53123784       0.09018783       0.40886309       0.14009726      -0.31061459      -0.06404631      -0.04684898
H        0.89778247      -0.58576214      -0.02611333      -0.19747599       0.22694703      -0.04751357      -0.49705045      -0.52115391       2.00153630
C       -1.70752176      -1.00608726      -0.24245848       0.19666211       0.51712979      -0.50993673       1.39780509       2.17955208       2.02495694
S       -0.91120134       0.36438160      -1.19518671      -0.43644700      -0.21246651       0.29186235      -1.02093513       0.46175669       0.06394053
H       -2.44935346      -0.54408103       0.39358788       0.18834432       0.24035683       0.09268972      -0.85301584       0.22094643      -0.44076684
H       -2.09504419      -1.74468328      -0.88808538      -0.09987073       0.05480219      -0.18333959      -0.66005147      -0.79062831      -0.91649365
C       -1.31028798      -1.89931817       2.12639868       1.04501264      -0.71415242       0.33843976      -1.89105558       1.68351018       0.87698764
H       -0.50515000      -2.57508704       0.26903812       0.03565814       0.14616814       0.27169852       0.81376106      -0.38748211       0.86535692
O       -1.53553618      -2.93271512       2.67197860      -1.00610325      -0.37208286      -0.82585101       0.68223476      -3.44856501       0.39588466
N       -1.85196527      -0.78802509       2.67227955       0.81307705       0.03549005       1.02157292       0.16009179       3.06871271       0.58386278
H       -1.56310338       0.09793971       2.24517886      -0.02492816      -0.36471384       0.05454423      -0.33266684      -0.14976284       0.50845993
C       -0.62130152       1.57827200       0.19016624      -0.97416018       0.61487815       0.12749000      -0.98842609      -1.18500076      -1.10914610
O       -1.39459965       1.71299837       1.10985574       1.16243612       0.31281935      -0.40016450       0.17844057       0.12055083      -0.28023183
C        0.66239290       2.31024045       0.06995626      -0.21199335      -0.06346181      -0.54929703      -0.01168764       1.12491417       0.70896983
H        1.23216780       2.07125896      -0.83230238       0.16415840       0.09096481       0.21631087      -0.22880200       0.23253329      -0.04234719
H       -2.20648511      -0.69156810       3.64490637       0.14981490       0.01478424      -0.29072280       0.54408497      -0.90726334      -1.27473998
H        1.24695452       1.99219434       0.95306551      -0.00976699       0.03311748      -0.09363594      -0.15568300       0.42907095      -0.24021465
H        0.36251042       3.39523825       0.15981185       0.07230286      -0.21798799      -0.44880147       0.85700428      -0.93187135      -0.13926157
