23
Properties=species:S:1:pos:R:3:momenta:R:3:forces:R:3 energy=-34120.42242446886 pbc="F F F"
N       -3.13467273      -1.19800952       0.35067792      -0.07231185      -0.05264362      -1.05463344       0.05411091       0.86418223      -0.12817299
C       -1.97440726      -0.59472035      -0.32106922      -0.79781082       1.15621771       0.59756178       0.38015825       1.24664307       1.56658053
H       -3.99668888      -0.94652966      -0.11989426       0.06583229       0.12157309      -0.23743373      -0.04680429       0.75988257      -0.21685022
H       -3.13932765      -2.17574409       0.20707112      -0.31785562       0.36289401       0.11380576       0.57785809      -1.41942346      -0.13369155
C       -1.54524872       0.70920673       0.52650623      -0.17763716       0.13516889       0.16474561      -1.87876403       0.19041359       0.35152709
S        0.09358918       0.47621058       1.34107038      -1.16635615      -1.54091731       0.15125107      -0.56669196       0.75924043      -1.35043341
H       -2.38793884       0.91074818       1.32317001       0.45688403      -0.11647558      -0.02523929       1.74746346      -0.82923770      -1.22681320
H       -1.65875218       1.65031174      -0.08874786      -0.03011364      -0.12778010      -0.18124128       0.88377053      -0.88558042       0.41992027
H       -0.51776118       0.12765856       2.43693338       0.04269103      -0.32050779       0.22485437      -0.33905780      -0.42902817       1.36605559
C       -2.26733739      -0.13982707      -1.72572434      -0.11165309       0.37308040       0.39168072      -1.55297863      -0.09860803      -2.40665317
H       -1.17922929      -1.34288623      -0.31707492       0.15390858       0.15076089       0.31217026       0.26218858       0.19382015       0.06901044
O       -3.41120750      -0.32505309      -2.13713582      -0.34063469       0.20489590      -0.72578646       0.69145483       0.48347729      -0.09222988
N       -1.28036889       0.39965677      -2.56936985       0.93741254      -0.52081079       0.58575587      -0.98476380       0.43534246       0.11134052
H       -0.43447970       0.68720842      -2.13993105      -0.16680884      -0.34410108       0.12557836       0.90580577       0.05802706       0.63459784
C       -0.51692511      -2.42439170       2.34140138      -0.33985502       0.30420389       0.10891963       0.08506752      -0.07373766       0.98713428
O       -0.79198049      -2.92283497       1.28538279      -0.12582147      -0.05430973      -0.29001168      -0.43903816      -0.10566916      -0.50589311
S       -1.79116328      -1.71268464       3.44498468       1.50593496      -0.96827967       0.58367562       1.33317184      -0.05780719       0.14809890
H       -2.72883787      -1.79463802       2.52667878       0.27524991       0.18334266      -0.04961014      -0.57897866       0.11238153      -0.71134186
C        0.91194553      -2.45109761       2.81559203       0.35242277       0.90483268      -0.31499751       1.44563997       1.25647211       1.60491681
H        1.21583812      -2.02982863       3.84190685      -0.12442579      -0.07645061      -0.13481365      -1.21120715      -0.46375629      -1.32715070
H       -1.51267731       1.06405970      -3.34648675       0.03642202       0.00327402       0.00284339      -0.40867823      -1.35525644       1.13408291
H        1.49643720      -1.85236017       2.09866040       0.12518271       0.02062184      -0.29712802      -0.13452366      -0.28812200      -0.02534736
H        1.32760657      -3.45486834       2.79552248      -0.18065721       0.20140962      -0.05194821      -0.22520366      -0.35365620      -0.26868862
