22
Properties=species:S:1:pos:R:3:momenta:R:3:forces:R:3 energy=-30132.846264103235 pbc="F F F"
O       -3.95397700       0.24694469       3.32789282      -0.54529668       0.31652660      -0.01132594       0.15616000      -0.12194209       2.11538940
H       -3.80641866      -0.74475068       4.77372899       0.09582298       0.00346315       0.06226286       0.14610447      -0.71720059      -0.18729144
O       -5.22093762       0.75322934       3.77760522      -0.77246042      -1.49732717       1.54671850       0.77564178       0.37977275      -0.04951625
H       -4.97354389       1.70205169       3.92132426      -0.03368341      -0.01424152       0.08818987      -0.45474416      -0.74688643       0.00565577
H       -4.14330488      -0.24301076       2.52958297      -0.06467042      -0.04546386      -0.02784051      -0.56929135      -0.40945214      -0.64675629
H       -5.82491846      -0.14952027       4.96321652       0.10648918       0.24439731      -0.05002562      -0.05404196      -0.00221297      -0.20237227
S       -3.75526752      -1.87498004       5.62628550       0.78495430      -0.82270774      -0.12986392       0.59790520       1.57482242      -0.56488940
S       -6.20669451      -1.15972535       5.82598921       2.04469573       0.32516879      -1.09996574      -0.81773452       0.47544599       0.20001313
C       -1.88075992      -1.98849475       5.51641367      -1.11021809       0.95132124      -0.47671741      -0.69156474      -1.43151724      -1.31670988
H       -1.61227455      -3.01790937       5.78714238       0.06557694      -0.18159691       0.21053882      -0.52188486      -0.22155845      -0.07527050
H       -1.69875318      -1.98933954       4.38752450      -0.17835810      -0.21188757      -0.09581812       0.38943484       0.75148857       1.56860900
C       -8.06852852      -0.62394172       5.80237437       0.09824356       0.11167266       0.74745824       3.35218239       0.91882253      -0.63393205
H       -8.54404570      -1.09008992       6.61046194       0.08565245      -0.01292668      -0.27443944      -0.84035945      -0.96488839       1.18948078
H       -8.30977874      -1.01781884       4.85487925       0.22101490       0.27425716      -0.11815256      -1.15993774      -0.55668330      -1.02763987
C       -8.14601884       0.87457146       5.84122537      -0.85677498       0.40775690      -0.20689218      -0.76428562       1.03265738       0.87297356
H       -7.53051938       1.34790331       5.07356391       0.17419755      -0.04184988       0.04577882      -0.06579888       0.02729362       0.02064580
H       -9.18003846       1.23392840       5.73552561       0.13249287      -0.10248237      -0.00770317      -0.04557832      -0.27344775      -0.53254461
H       -7.91136292       1.31588971       6.82775333       0.29018334      -0.09791600      -0.21797283       0.55385685      -0.43819851      -0.27447027
C       -1.07256072      -1.15776637       6.48092758      -0.20611050      -0.26210057       0.09560317       0.53511941       1.23631024       0.08285132
H       -0.03779300      -1.51716484       6.50545322      -0.03942460       0.07975508       0.06728228       0.12217981       0.13288888      -0.42963660
H       -1.05930480      -0.06460612       6.28969710      -0.19725337       0.01341219      -0.02030171      -0.04017144      -0.49360323      -0.10369930
H       -1.37325226      -1.27723101       7.52291276      -0.09507265       0.56276886      -0.12681269      -0.60319167      -0.15191185      -0.01089036
