20
Properties=species:S:1:pos:R:3:momenta:R:3:forces:R:3 Coordinates=T from=T ORCA-job=T int=T E=T -1253.934929368563=T energy=-23252.96910763471 pbc="F F F"
N        0.31142075      -0.72765988       1.67731308      -0.00909782      -0.44872855       0.82270193      -3.05994805       1.61847298       1.78798250
C       -0.08675540       0.58864993       1.15132840      -0.79057676      -0.39797661      -0.04027046      -0.95254815       0.56475043       0.84517252
H        0.79625919      -1.24374906       1.03311320       0.09701589       0.23603097      -0.08341263       1.82822490      -1.26481462      -2.42533040
H       -0.54453107      -1.30118063       1.86709607      -0.16466702      -0.25260821       0.14924787       1.18052715       0.86531765       0.27366046
C       -1.39915848       0.58984323       0.29529151       0.65379119      -0.32077781       0.36978628       1.84939408      -2.05998683      -0.41540393
S       -2.77634823      -0.17695271       1.22554179      -0.18443747      -0.78898973       0.25971743       0.29611182      -0.16894723       0.13982790
H       -1.04515417      -0.06279808      -0.55593752      -0.11382967       0.08962777       0.02301781      -1.21774805       0.59490806       0.22902565
H       -1.70598755       1.55644540      -0.06124176      -0.05606907       0.25810890       0.19294415       0.04581732       0.57505870      -0.04753222
C        1.05434784       1.23438562       0.41030266      -0.32493626       1.14535762       0.20057424       1.27631164       1.08347583       0.52362955
H       -0.29681113       1.24646806       1.99089516       0.01650271       0.06681070      -0.19817504      -0.18658519       0.00377232       0.68697965
O        1.77393860       0.59240361      -0.29366056       0.06108914       0.43695875      -0.70190342       0.91647440      -1.84838867      -1.66606283
N        1.38383240       2.56885616       0.61057903       1.03174664       0.58010709      -0.17968156      -0.08375835      -0.61855173      -0.40054941
H        0.93680478       2.99123660       1.37219824       0.09813732      -0.17480178      -0.03419251      -0.68344140       1.04830837       1.26733351
C       -2.41064380      -1.92131125       0.78119189       0.39920135      -0.26215736       0.02365741      -1.42554192       1.05633863      -2.47031681
O       -1.72258054      -2.71562556       1.32933740       0.39173336      -0.06092320       0.17044426       0.81300467      -0.93335670       1.44850349
C       -3.03160993      -2.25679502      -0.56619595      -0.98198939      -0.32948867      -0.47380111      -2.18085146       2.01163769      -1.23889494
H       -2.72775704      -1.58523263      -1.41769700      -0.02038965       0.23132918      -0.11816927       0.07759339      -0.04981261       1.09257340
H        2.37458451       2.81757937       0.51686229      -0.03827848       0.13495804      -0.09829187      -0.68275189      -0.39383850      -0.23298347
H       -4.18184708      -2.18663968      -0.63772428      -0.17220589      -0.09610747      -0.09582540       1.68069220      -0.12579116       0.66209710
H       -2.74139070      -3.19679702      -0.91837404       0.10725968      -0.04673030      -0.18837016       0.50902331      -1.95855296      -0.05971210
