22
Properties=species:S:1:pos:R:3:momenta:R:3:forces:R:3 energy=-30133.326628665804 pbc="F F F"
O       -3.63466724      -2.34476852       3.90411464      -0.87482692      -0.10046056      -0.53006341       0.66524807      -1.01463583      -0.44518327
H       -3.92913333      -2.25763675       5.48850899      -0.36402890      -0.15476222      -0.20965719      -0.79906062       0.75772568       0.58022451
O       -4.02721392      -1.22621540       3.15661746      -1.13211099      -0.23679763      -0.22896972      -0.66462012       0.56583681      -0.66537563
H       -3.26518398      -0.62515840       3.06336927       0.03542085       0.38151084       0.43507728       0.53265089      -0.53459632       0.20238858
H       -3.96025481      -3.09889017       3.35755215       0.22137976      -0.16174359       0.05890802       0.19305831       0.53605318       0.38810760
H       -4.79032927      -0.32289443       4.32561070      -0.09672252      -0.27950197       0.01673187       0.53438828      -0.62752814      -0.41935163
S       -4.61790518      -1.64375999       6.55486630       1.90461878       0.82016706      -0.23828759       0.58302937      -0.92593986       0.23389853
S       -5.68759596       0.42589907       4.91057165       0.18607180      -0.53325988       0.46109340      -0.44526444      -0.01181405       0.85073184
C       -3.87562556      -2.80106094       7.80157432      -0.65789673       0.59275124       0.10923054       0.02425909       0.05582523       0.91035104
H       -4.46366605      -3.71624101       8.03139248       0.18212067       0.00824574       0.15337726      -0.18150608       0.60437721      -0.76960993
H       -2.93395373      -3.16006628       7.41469265       0.17468278       0.34625953      -0.15454266       0.45881569      -0.01640980      -0.40343651
C       -6.23649379       1.04539218       3.29875307       0.43177617      -0.31963804       0.87815622      -2.05058432      -0.17133954      -0.63775921
H       -7.23259766       0.52550277       3.01609621      -0.27226509      -0.18440055      -0.07860906       1.70962942       0.60268724       0.28018692
H       -5.46219469       0.80000787       2.56292722      -0.03794531       0.09656530      -0.16587125      -0.32503974      -0.03313932       0.01033093
C       -6.47249172       2.53762252       3.34283739      -0.45936873       0.54838385       0.30639943       1.21076858       1.42165649       2.64974880
H       -5.53096452       3.09222728       3.72110936      -0.06276486       0.16484252      -0.09094467      -1.41417372      -0.92343771      -0.19159499
H       -6.65481930       3.01838396       2.43622261      -0.03344226       0.24184409       0.24410715      -0.33801383       0.29152805      -2.31575656
H       -7.34589063       2.87145187       3.96155381      -0.17897390      -0.38521384      -0.23141956       0.80087060      -0.61362410      -0.01543744
C       -3.63992967      -2.16179060       9.18331700       0.80642303      -0.49888570      -0.26660807      -1.40345931      -0.16878727      -0.04718234
H       -3.20334502      -2.93093462       9.84441290      -0.13787103      -0.26027966      -0.25321128       0.48174429       0.64070088      -0.18483856
H       -3.21650405      -1.15205490       9.21857540       0.61739683      -0.03447383      -0.05376827       0.75386250      -0.44974580      -0.21734208
H       -4.63179378      -1.99484194       9.60512949      -0.25167263      -0.05115250      -0.16112732      -0.32660282       0.01460689       0.20689929
