23
Properties=species:S:1:pos:R:3:momenta:R:3:forces:R:3 energy=-34120.51511734596 pbc="F F F"
N       -1.41549336       0.58487390       2.08486841      -0.14085388      -0.02971299      -0.37827845       0.11979897      -0.80048090       0.02796115
C       -0.83468678       0.96310204       0.83477666       0.10175429       0.31001484      -0.26939400       2.11461091       0.38058087       0.42607772
H       -0.64244694       0.35773763       2.69051953       0.30169967       0.01528470      -0.04249329       0.07537366      -0.07901643       0.70678973
H       -1.78918042       1.44169863       2.42472001      -0.13340341      -0.29576979       0.22415587      -0.75449121       0.78390521       0.92039055
C        0.21556746      -0.06714611       0.43026310      -0.11031063      -0.59099796      -0.25328153       1.55644453       1.65368378      -1.32102728
S       -0.32124218      -1.22618282      -0.79758332      -0.50885956       1.15411476       1.18775384      -0.37620068      -1.25701102      -0.77648972
H        0.69350019      -0.52355610       1.29837370      -0.38463505       0.19982944      -0.11893483      -0.07360356      -0.07468910       0.03048566
H        1.05004697       0.49259624      -0.14064367      -0.04497226       0.20835827       0.19795948      -1.04539716      -0.94093025       1.07583833
H       -0.64269657      -2.32016586      -0.06460157       0.16330654       0.28371147      -0.01072274       0.15902492       0.51587378       0.13205846
C       -0.20433952       2.41865931       0.93945817      -0.03847816      -0.10003847       0.20385857       0.37686586       0.43211079      -1.87893748
H       -1.66536968       1.00403741       0.18346615      -0.12197114      -0.09406487      -0.10476217      -0.73701274       0.23076819      -1.58283246
O       -0.61237609       3.13095379       1.82442688      -0.30566483      -0.12135273      -0.97161816       0.10230935       0.49202213       0.61401969
N        0.66176961       2.94026035      -0.06557334       0.18012562      -0.25221169       0.34009150      -0.16325985      -0.19767565       0.51776814
H        1.04011841       2.41377524      -0.85648685      -0.05384838      -0.20177327       0.40764433      -0.50098044       0.04775344       0.57673568
C       -3.15038922      -4.01709385       0.99966368      -1.40247635       0.54314143       0.11640221       1.17868307      -0.64354369       0.01354152
O       -3.12437994      -5.19772866       1.27918523       0.53704884       0.08860680      -1.05202440      -0.37628317       1.07980013      -0.21647313
S       -2.33152121      -2.88272377       2.14840610       1.04337483      -0.88745107      -0.40801753       0.02208926      -1.04292767       0.62792886
H       -2.52239321      -1.73676968       1.55379325      -0.07506662      -0.27522946      -0.03946906      -0.23007742       1.04864895      -0.54724312
C       -3.65419241      -3.47563481      -0.31177985       0.76173384      -0.14527562       1.05015056      -0.27052718       0.44744751       0.76839352
H       -2.91445787      -3.09905691      -0.98713257       0.02530276       0.14608219       0.10734885       1.14061749      -0.04240093      -0.29170728
H        1.02810981       3.91866224      -0.02007588      -0.21517994       0.09100476       0.06480959      -0.87030315      -1.42082870       0.46729720
H       -4.30006202      -2.62033423      -0.19753094       0.35528850       0.05741767      -0.10440167      -0.67876709       0.29786807       0.37347490
H       -4.16014644      -4.27100497      -0.79195168       0.06608530      -0.10368894      -0.14677603      -0.76891488      -0.91095781      -0.66405046
