20
Properties=species:S:1:pos:R:3:momenta:R:3:forces:R:3 Coordinates=T from=T ORCA-job=T int=T E=T -1253.934929368563=T energy=-23250.882591092213 pbc="F F F"
N       -0.21992658       0.28438077      -0.04610996      -0.62342043       0.64503712       1.05011902       1.89572306      -0.19657164      -0.58438820
C       -0.37715784       0.70609205       1.35562897       0.48602238       0.19015741      -0.29731814       1.38054442      -0.82737046      -0.04450750
H       -0.09693737       1.00711882      -0.79996864      -0.01768469      -0.17226763       0.08172403      -0.61866486      -0.80536932       0.82120812
H        0.70998497      -0.29852196       0.03221000       0.17082664       0.32079032      -0.14851228      -0.62012893       0.31200494       0.06219255
C       -0.24631226      -0.60422351       2.15340928       0.26332354      -0.13286758      -0.18047562      -0.34938115      -0.90758628       0.89557254
S        0.25701489      -1.98458218       1.02014252       0.84348527      -0.01240003      -1.18141592      -0.57649350       1.82534181       0.04912461
H       -1.17177381      -0.89847404       2.67344789      -0.00230659      -0.20976489      -0.22498064      -0.31479335       0.06582614      -0.57439065
H        0.39437136      -0.45910866       3.02805049      -0.14325376       0.29848524      -0.41560856       0.66656572      -0.24283525      -0.35796928
C       -1.64600716       1.44518684       1.48670048       0.65961528      -1.06389429      -0.46815077      -0.97276878       0.40233287      -1.80510032
H        0.44019459       1.37539041       1.73118501       0.23951877      -0.25465628      -0.25179065      -0.34770125      -0.43752390      -0.81882864
O       -2.23170837       1.78317733       0.45290302       0.40661651      -0.01688982       0.63971565       0.17487633       0.14221451       1.23534966
N       -2.07348859       1.69665822       2.72287407      -0.47535183       0.36014890      -0.52354634      -2.34319901       2.07588005      -0.19526982
H       -1.68316614       1.38873418       3.56446732      -0.06644901       0.07196700       0.03952653       0.95719963      -0.59293127       1.08359027
C       -0.86427000      -1.00933553      -0.50594327      -1.16888158      -0.41577506       1.10815598       1.72379022       1.15159036       1.26912409
O       -0.45600548      -1.29000398      -1.61467747      -0.76199873       0.26866937       0.80636574       0.31295729      -0.69955003      -1.58822227
C       -2.30778085      -1.25111778      -0.19125058       0.49108026      -0.29301601       0.09846861       1.15871525      -0.01249660       4.13861847
H       -2.81210240      -1.25698253      -1.05908874       0.10866653      -0.15277568      -0.29004536      -1.87471807      -0.89478010      -3.34702682
H       -2.82068918       2.40449072       2.79226474      -0.08661769       0.19745134       0.10792903       0.53592336      -0.83230799       0.04324747
H       -2.72362014      -0.41827522       0.34651596      -0.04851951      -0.02707999       0.21294208      -0.15111215       0.36476487       0.51724595
H       -2.32450573      -2.13453512       0.47636551      -0.27467223       0.39868103      -0.16310318      -0.63733464       0.10936767      -0.79957038
