22
Properties=species:S:1:pos:R:3:momenta:R:3:forces:R:3 energy=-30132.495615034983 pbc="F F F"
O       -3.78293172      -0.49561456       3.19271093      -0.49284154       1.19630560       0.27727239       0.91859979      -1.01286986      -1.12435383
H       -3.55314826      -0.50599281       4.69226329      -0.13991815      -0.25982974      -0.07337690      -0.28525304      -0.02304279       0.74276609
O       -5.09128123       0.01149805       3.15646661      -0.91332022       0.00603285       1.60507311      -0.54849979       1.60964050      -0.71477321
H       -4.95820399       0.99558465       2.97255770       0.10016062      -0.06043690      -0.06295531      -0.18848336      -1.33918715       0.32529184
H       -3.67440500      -1.04725007       2.34107516       0.10440520       0.02864851      -0.18251226      -0.31127363       0.93050921       1.57006240
H       -5.93840516      -0.23291411       4.39233648      -0.36223667       0.10576452      -0.00192893      -0.56775794      -0.46169665       0.94682887
S       -3.62843180      -0.45659261       6.11871465       0.23611143       0.48181487       1.57191585      -1.56887466       0.16738727      -1.59027968
S       -6.27954460      -0.70642560       5.71661485       1.12821947      -0.83375533      -2.20917319       0.77541218       0.46501267       0.17156523
C       -1.89152092      -0.77191146       6.20521066      -0.36811854      -0.78444816      -0.16554092       1.88992536      -1.67326546       2.26255941
H       -1.63522765      -1.67032032       5.62225967      -0.04946469       0.17702489      -0.07291098       0.03082165       0.52421850      -0.36897653
H       -1.26839007       0.08602841       5.96555949       0.38544970       0.16473781      -0.07434022      -0.06723664       0.12526929      -0.51980352
C       -8.08037003      -1.13087129       5.52235025      -0.73121797       0.14080694      -0.87745002      -0.02206856       0.70078480       0.66533208
H       -8.61120068      -0.18538393       5.31100325       0.09317962       0.05577130      -0.02326691       0.19137786      -0.36521497      -0.19959807
H       -8.54527823      -1.47361857       6.47799921       0.02302773      -0.17779219       0.01935676       0.77239180      -0.16444051      -0.53767169
C       -8.10518822      -2.07446193       4.36171741       1.00166674       0.39424955      -0.28726904      -0.31819487      -0.12089198      -1.59361255
H       -7.49651866      -2.97015196       4.38561372      -0.35703270      -0.40939444       0.47242965       0.51563305      -0.12491887       0.76681894
H       -9.06037256      -2.44665438       3.99578869       0.12718248      -0.00574898      -0.01544446      -0.64300966       0.32607830       0.38514376
H       -7.70024372      -1.48562528       3.53333890      -0.00447868       0.20555087       0.17972083      -0.05572578      -0.20687988      -0.41237000
C       -1.54367832      -1.16555997       7.69722848       0.29619321       0.22947432       0.05114938      -1.31559849       0.56213742      -0.36712757
H       -0.53228706      -1.53676301       7.85928422      -0.09556665      -0.14664571       0.10118353       0.27820420       0.21252534      -0.29532439
H       -1.72440168      -0.24993022       8.30287640       0.19393546      -0.30236462      -0.09645907       0.22081187      -0.69955194       0.04829312
H       -2.23035222      -1.97341847       8.04254120      -0.17533567      -0.20576622      -0.13547186       0.29879862       0.56839657      -0.16077061
