20
Properties=species:S:1:pos:R:3:momenta:R:3:forces:R:3 Coordinates=T from=T ORCA-job=T int=T E=T -1253.934929368563=T energy=-23253.631119425663 pbc="F F F"
N       -0.54202841      -0.94469340       2.15825225       0.20013429       0.25850245      -0.07436402       0.81931746      -0.58347480       0.23019830
C       -1.45482152      -1.42786916       1.13900214      -0.64699927      -1.03833701      -0.00228911       1.46174860       2.01697469      -2.23304462
H        0.36448075      -1.42640662       1.94967305      -0.02052467      -0.21337739       0.32961219      -0.96685439       0.92790008       0.62599862
H       -0.39120030       0.07168617       1.99745074       0.36939350      -0.06383418      -0.14651506      -0.21571600      -0.73444570       0.79835100
C       -1.36966017      -0.48525672      -0.15722442       1.15319611      -0.52076641       0.22583723      -0.09829448      -2.96151829      -1.00946522
S        0.32027561      -0.15827305      -0.71111632      -0.33033216       0.84073381      -0.47512358      -0.35750916       1.04931481       0.28586428
H       -1.91986361       0.40363506      -0.03863118      -0.17441215       0.06048970      -0.08460160      -0.43124315       1.56462407       0.50331551
H       -1.87867882      -1.00360847      -1.02838946      -0.26844507       0.06949892      -0.32902885       0.55597228       0.34484762       1.01476729
C       -2.92727820      -1.46554374       1.47670704      -0.39403042       0.24033331      -0.09703754       2.01153398      -0.29535857       3.81389070
H       -1.05200223      -2.38483578       0.80645525       0.03052008      -0.02591926      -0.04813369      -0.72329873      -0.51101011       0.02298719
O       -3.71244414      -1.80005342       0.66613714       0.03061447      -0.15643791       0.64336766      -2.83458471      -0.59498280      -2.48353267
N       -3.13553583      -1.23993254       2.81642483       0.42594307      -0.58438022       0.96324593       0.35962945      -0.07542223      -1.62203610
H       -2.31287259      -1.08558502       3.32685714      -0.02040182       0.11911288       0.08808217       1.39899528       0.36613190       0.94071305
C        0.64585727       1.36588022       0.20862481      -0.29172092       0.37374510      -0.22441327      -2.03998190       0.25763275       3.37847456
O       -0.03677043       1.77625074       1.20493298      -0.10188174       0.38873471      -0.19323336       2.00119781      -1.42628193      -3.76089025
C        1.90788598       2.00370333      -0.19541362      -0.33374848       0.45853899      -0.51489657       1.10977852       0.73541844      -0.01582646
H        2.75067560       1.76399790       0.49056611      -0.22754832       0.05893005      -0.15924510      -0.65901506      -0.07448584      -0.04553622
H       -3.98254596      -1.16284447       3.30367432       0.33714310      -0.01004685       0.11375152      -1.55827284      -0.07975671       0.11868931
H        1.79146473       3.09861890      -0.14496737       0.23094067      -0.11943846      -0.07984856       0.04394892      -0.29159588      -0.26994580
H        2.20569809       1.63186818      -1.17277396       0.03215971      -0.13608244       0.06483466       0.12264752       0.36548841      -0.29297158
