23
Properties=species:S:1:pos:R:3:momenta:R:3:forces:R:3 energy=-34118.935278470795 pbc="F F F"
N       -3.77475397      -2.51276339      -1.17765697       0.81137869      -0.74844991      -0.19357980      -1.15598023       1.19346976       2.38712072
C       -2.64886676      -2.06868002      -0.41322422      -0.29978310       0.03030016       0.51544242      -0.53452384       2.27159858      -2.19770885
H       -3.94697095      -3.46501669      -1.01624656       0.22801851       0.10295648       0.09306774      -0.25409934      -1.61150634      -0.40642181
H       -3.62172764      -2.27908787      -2.12208651      -0.50342729      -0.28640484       0.34824960       0.21582139      -0.33040473      -1.38060236
C       -2.79647292      -0.47624053      -0.42532848       0.22779924      -0.18693501      -1.28429297      -0.54495311       0.51026797       0.74044281
S       -1.64242072       0.38582759       0.71246497      -1.35039011       1.65541584      -0.94649931      -0.35911205      -0.44170508       0.32219383
H       -3.86857748      -0.22113590      -0.18105465      -0.14570805       0.25215762       0.09870503       1.04471433      -0.47118336       0.04034785
H       -2.62040478       0.06224855      -1.37145301       0.06428421       0.26656260      -0.21085052       0.13329053      -0.90683949      -0.22512120
H       -1.92456928      -0.37420247       1.84159942       0.19118342      -0.03791756      -0.13545597       0.24465789       0.42416215       0.11462206
C       -1.40591103      -2.49979250      -1.18145731       0.31838590      -0.54005970       1.10761336       0.78983128       0.62790847      -0.08488026
H       -2.65663823      -2.35609094       0.61945031       0.03444728      -0.12565499       0.09837890      -0.11956367      -0.62705076       0.71772850
O       -1.48822233      -2.94440051      -2.31309481       0.63127667       0.84869438       0.08099764       0.10521953      -0.28776476      -0.13327725
N       -0.23311408      -2.21494819      -0.58126543       0.02496628       0.17679100       0.33933723      -0.42656955       0.42245433       1.57378960
H       -0.23994283      -1.70315283       0.31450243      -0.18973360      -0.03216042      -0.21333252       0.48615548      -0.46878630      -0.82379133
C        0.03074345       0.32217703       2.73691634       0.70872102       0.08469348      -0.08761635       1.52132478      -1.20136594      -1.14638608
O        0.88465360      -0.36972612       2.18674863      -0.48864532      -0.65906144       0.55416258      -1.41707098       1.35808361       0.89624405
S       -1.32946406      -0.62402076       3.61517320      -0.64563138      -0.91490883      -0.39858746       0.20596753       0.91696757      -0.35425395
H       -0.90258417      -1.80145829       3.14257307       0.07599411      -0.02536019      -0.18836742       0.22043730       0.04734907       0.05797861
C        0.13577147       1.86714571       2.79887508       0.08823151       0.36331042      -0.02255967      -4.12302923      -1.40519202       0.52948391
H       -0.08860788       2.21514662       1.78647264      -0.03284669       0.09274949       0.03907936       0.65630120       0.25074300       0.11257064
H        0.62340843      -2.37200939      -1.06438771       0.21579291      -0.16364224       0.04325603       0.57948685      -0.15109481      -0.30945501
H        0.99404127       2.22556306       3.26510536       0.06306108      -0.20915796       0.14084812       2.12020183       0.38995832       0.30513537
H       -0.70639261       2.25177421       3.45111784      -0.02737465       0.05608150       0.22200390       0.61149287      -0.51006967      -0.73575962
