22
Properties=species:S:1:pos:R:3:momenta:R:3:forces:R:3 energy=-30133.05419657728 pbc="F F F"
O       -5.70780048       1.42810473       5.22674123       0.63060743       0.46547758       0.14808642       0.46846850      -0.18128780      -0.24915743
H       -4.29258076       0.60455247       5.28677484      -0.04366304       0.01198188       0.07835926      -0.24223359      -0.14828917      -0.21977812
O       -6.56119704       0.83983260       6.22538379       1.02027996       0.32145866      -0.20159264      -0.09994883       1.11606273      -1.00926991
H       -7.09512045       1.64962517       6.36111341      -0.20689477      -0.08526408      -0.13410080      -0.20624524      -0.68090451       0.78290588
H       -6.18737590       1.36018480       4.36645604       0.25569647       0.13135192      -0.20533417       0.14774430      -0.26914307       0.51898170
H       -6.02738769      -0.66779211       6.08823128       0.19539614       0.09405975      -0.12506361      -0.67475423       0.44116989       0.17797779
S       -3.43630768      -0.45285550       5.10491528      -0.99744565      -0.58706306       0.39482838      -0.60791206      -0.16935598       0.01004305
S       -5.64656183      -1.89992437       5.73885838       1.23232160      -1.14077516       0.30216785       1.64694179      -0.42452491      -0.40790736
C       -1.94250679       0.58189270       4.89543929      -0.52087585       0.49724210       0.21874862       0.52821785      -1.92250681       1.91078162
H       -1.82643318       0.92153336       3.90562033      -0.23092905       0.09330302      -0.04818862      -0.17651536       0.59676176      -1.39523578
H       -2.10177990       1.40789065       5.58696030      -0.12815134      -0.30347863      -0.27787519       0.52780926       0.26289782      -0.03128941
C       -7.25639538      -2.70360599       5.59513733      -0.63083892       0.49480715      -0.17812836      -1.31723869       0.07307943      -0.27920765
H       -7.95691472      -1.86611131       5.68549109      -0.09687990      -0.22690988      -0.07066866      -0.33719513      -0.38369864       0.23325235
H       -7.41367418      -3.41441431       6.42201500      -0.29588008       0.12597689       0.12669731       0.13777913       0.32392102      -0.15231727
C       -7.43455070      -3.39061141       4.22525620       0.31401234      -0.52639151      -0.04909617      -1.12953138       0.79289889       0.09097335
H       -7.38684521      -2.66627784       3.41044642       0.19806165      -0.07614633      -0.42052744      -0.53353441       0.26243657       0.02726264
H       -6.58723144      -3.94330145       4.05139425      -0.30692547       0.39311860      -0.06082758       2.46896863      -1.76874757      -0.36236370
H       -8.25279488      -4.12985988       4.05905271       0.06210264       0.07835579       0.24144680       0.00640367       0.94684792       0.57901907
C       -0.70029314      -0.30009274       5.24005541      -0.74113067       0.14926032       0.56806072      -0.58111888      -0.30224657       0.57426882
H       -0.67356205      -1.26728644       4.71405378       0.04591426       0.01290162      -0.12938581      -0.08137807       0.58343506      -0.66611755
H        0.19911361       0.26800400       5.06820593       0.29467442       0.06370257      -0.36150006       0.59950376       0.15835883      -0.34500903
H       -0.62239451      -0.67713357       6.27019223      -0.04945289       0.01303075       0.18389303      -0.54423118       0.69283509       0.21218720
