22
Properties=species:S:1:pos:R:3:momenta:R:3:forces:R:3 energy=-30134.257484067926 pbc="F F F"
O       -7.18842314      -2.50359591       5.39939452      -1.46068107      -0.31341732       0.87461424       0.54890847      -1.95784036       1.14507049
H       -5.53969608      -2.33114972       6.09846565      -0.37591910      -0.20436376       0.16203585       0.01168914       0.06758440       0.13915882
O       -7.27718588      -1.27153115       4.77206689       0.23411285      -0.10135967       0.12147421      -0.42326051       1.61988083       1.83480856
H       -7.28162332      -1.58710754       3.89773248       0.01487450      -0.27535003       0.02605529       0.00978035      -0.20211193      -2.33661056
H       -7.90165297      -2.61777831       6.06717540       0.23618233      -0.06147247      -0.01314075       0.10937600       0.84634537      -0.55456793
H       -6.00927073       0.07367026       5.17905297       0.00476868      -0.15041674       0.12217495       0.76304758       0.82110568       0.14047113
S       -4.50847312      -1.87426292       6.85076954       0.03218112       1.19477518      -0.61600708       0.18021070      -0.22911427      -0.65140778
S       -5.03199352       1.05347418       5.41249155       0.04128778      -0.42135260      -0.33639840      -0.79244398      -1.15122654       0.46150032
C       -3.16471901      -2.05084928       5.57843938       0.69732239      -0.09942229      -0.22913534       0.11145913      -0.21488181       1.32962465
H       -3.52515812      -1.79797402       4.58960221       0.05962286      -0.21525581      -0.01242181      -0.16596261       0.44259369      -0.21568599
H       -2.45159521      -1.31259055       5.96754342      -0.13824790      -0.09913015      -0.04833729       0.07519665       0.03738500      -0.63632172
C       -4.70807654       1.41660020       3.66531640       0.16397622       0.51484858       0.03389053      -2.19470716       0.04169670      -0.28337410
H       -5.59575272       2.01423565       3.34392996      -0.11634609       0.11112595      -0.12660290       0.70956427      -0.32166496      -0.10406707
H       -4.82179132       0.41031729       3.21784611      -0.14155395      -0.02137478       0.04741064       0.56709701       0.60207719      -0.49155062
C       -3.40401452       2.14202949       3.45953287       0.24183416       0.21897999      -0.00948282      -0.57050282      -0.24063265      -0.19806619
H       -2.65005614       1.41169958       3.61629991      -0.17114066       0.09711742      -0.29237805       1.32059467      -0.47106957       0.36691943
H       -3.26791685       2.54063424       2.45792617       0.01022490       0.06431423       0.03142803      -0.22723460       0.04540214      -0.32467109
H       -3.31817466       2.95319852       4.16738474      -0.08458615       0.16148549      -0.06044705       0.18507352       0.31414136       0.30148178
C       -2.54432690      -3.45011011       5.57010239       0.35036089      -0.20531378       0.55489823      -0.34230784       0.68709540      -0.19681807
H       -1.82031071      -3.56116853       4.76845232       0.03145574       0.05053412       0.04829172      -0.19229400      -0.09451715      -0.63740599
H       -1.95842964      -3.62759118       6.44101348       0.12227321      -0.00010677      -0.13784890       0.28347373      -0.15185417       1.22056949
H       -3.34129084      -4.18482909       5.53251603       0.24799711      -0.24484503      -0.14007376       0.03324229      -0.49039429      -0.30905783
