23
Properties=species:S:1:pos:R:3:momenta:R:3:forces:R:3 energy=-34118.435190181284 pbc="F F F"
N       -3.92615953      -0.19994682       3.34057734       0.30457734      -0.55706429       0.02155937      -1.28763735      -0.12698187       0.42547363
C       -3.10395822      -0.49456614       2.20529850       1.07172775       0.38303307       0.31451446       1.13812053      -0.84893757      -1.22965205
H       -4.93856572      -0.41242622       3.10771768       0.05412007       0.36342082       0.05044705       1.60855138       0.37428111       0.36224207
H       -3.87805569       0.82458351       3.39579812      -0.31570644      -0.15126144      -0.06443843      -0.40772799      -0.32629508       0.23125418
C       -1.60670097      -0.17161951       2.57743943      -0.54730268       0.36197809      -0.46859954      -1.44543874      -1.85520172      -0.82514375
S       -0.36455435      -0.54232376       1.22091020       0.29044348      -2.05463825       1.22380221      -0.35976137      -0.31357516      -0.14355281
H       -1.37993416      -0.87808248       3.36538233      -0.04910771      -0.40023738       0.03973539       0.25285953       0.38302821       0.71432477
H       -1.48147119       0.85121601       2.79076147      -0.04603314      -0.13570079       0.24455097       0.11792299       1.34851027       0.77773619
H        0.01844743      -1.79975249       1.58548490       0.08535641       0.40686953      -0.12846640      -0.48150737       0.62852373       0.51399436
C       -3.57629344       0.33875328       1.01625435       0.11191520       0.08091776       0.30063156       1.02176535      -1.06162548      -0.47019732
H       -3.16071606      -1.56395707       1.90159021      -0.09440289       0.12069080       0.10129544       0.09501661       0.31838319       0.48580855
O       -4.08028885       1.39843492       1.28890410       1.09306436       0.33991902      -0.66955630      -0.75654876       1.39359009      -0.64751387
N       -3.44293156      -0.15624959      -0.26457385      -0.49984262       0.28119969      -0.93792440      -1.25671256       1.46245492       0.56754786
H       -2.73601849      -0.75414344      -0.61154525      -0.10190538       0.23902404       0.14965704       1.02421606      -1.00279081       0.12855045
C        0.17711167      -1.63162901      -0.46240991       0.10077656       0.28849648      -0.48678960       0.42123671      -0.31323083      -0.88160559
O       -0.76948323      -2.01039980      -1.17848604      -0.80981928      -0.42691303       0.35042990       0.12785506       0.30366105       0.76664317
S        0.98948650      -3.00007720       0.58119124       0.18943844       0.90876465      -0.19672273       0.20249219       0.15003142      -0.50483491
H        0.89567711      -3.88748789      -0.40243623       0.06243553      -0.03933376      -0.16045710       0.01217387      -0.57711905      -0.21261981
C        1.20951822      -0.68282314      -1.15533979      -0.66930560       0.21677966      -0.03668508      -0.06022121      -1.32763457       1.02779913
H        1.75819939      -1.33272944      -1.84804863      -0.13226678      -0.06554516      -0.06159566       0.40479517       0.27996355       0.24604176
H       -3.83151508       0.46080582      -0.96520268       0.07188301      -0.05401725       0.30231151       0.02510070       0.06225805      -0.03718709
H        1.82086033      -0.14708923      -0.40080548       0.07252865      -0.18606328       0.05864992      -0.01205094      -0.12779933      -0.84523791
H        0.58621966      -0.07398772      -1.76275872      -0.24257360       0.07968098       0.05365072      -0.38450015       1.17650592      -0.44987074
