20
Properties=species:S:1:pos:R:3:momenta:R:3:forces:R:3 Coordinates=T from=T ORCA-job=T int=T E=T -1253.934929368563=T energy=-23252.868451059385 pbc="F F F"
N        0.05788670      -0.68785562      -0.04122689       0.82317561      -1.33813110       0.74061860      -0.51756639       0.17203859       2.06052199
C       -0.01453985       0.72254098       0.43339352      -0.31465301       0.21394013       0.72984965      -1.08021736      -0.30145597       0.85564876
H        0.60498821      -0.77586651      -0.90482333       0.05828477       0.29703661      -0.28844936       0.16807254      -0.00493661       0.72025859
H        0.51129496      -1.10005935       0.82698265      -0.04855376      -0.05672110      -0.42504782      -0.53111500      -0.20473003      -1.43344984
C       -1.05379714       0.73780948       1.67608563       0.07390179       0.92675916       0.25809179       1.12664485       0.47639567      -0.58549196
S       -0.87816340      -0.82381574       2.61545298       0.13632315       0.53786475       0.31918083       0.17701704       0.52903369      -0.36548087
H       -2.06685782       0.90869513       1.24145434       0.34354901       0.33077979      -0.21769852       0.68911469      -0.29699147       0.60705245
H       -0.83064703       1.53140082       2.45016602       0.05514396       0.38976213      -0.40285483      -0.16403101      -0.63524991      -1.05630076
C       -0.57713776       1.61535042      -0.67856553      -1.04028518       0.14720341      -0.32296224       2.43730116      -1.00114989      -0.12582901
H        1.01478433       1.04552705       0.71241301       0.08195910       0.33181919      -0.09553197      -0.69335699       0.24097529       0.33594942
O       -1.73433065       1.66185201      -0.98938430      -0.79188230       0.20821808      -1.36864954      -1.46200907       0.38277626      -0.02545385
N        0.44881799       2.15964961      -1.40454183       0.50903102      -0.65803438      -0.47172793       0.51430345       0.05620629       0.35516709
H        1.43004942       2.02638985      -1.12770888       0.05114097       0.03568678      -0.01167007      -0.93348289       0.34001127      -0.30318049
C       -1.52114237      -2.03879283       1.47806546       0.08869227      -0.03274043       1.18549373       1.13462111      -1.65657297      -0.79543998
O       -0.94468519      -3.12146024       1.34102224       0.07054317      -1.52355304       1.27866035      -1.23347080       1.94529486       0.29764265
C       -2.81800652      -1.71659243       0.75904397       0.06244500       0.18423933      -0.59968014      -0.71498179      -1.51260853       0.21064404
H       -2.85484191      -0.73946333       0.33722777       0.06103540       0.13121280       0.04105095       0.09722362       1.11855650      -0.05609894
H        0.23650903       2.83739111      -2.11178261       0.04843170      -0.07811158      -0.15722021      -0.01714727       0.20853654      -0.32667667
H       -3.73359824      -1.89412957       1.41285151      -0.25927153      -0.06707295      -0.09799025       1.21265972       0.22802900      -0.73507392
H       -2.82871898      -2.38915203      -0.11411711      -0.00900868       0.01984377      -0.09346406      -0.20957886      -0.08415890       0.36559093
