20
Properties=species:S:1:pos:R:3:momenta:R:3:forces:R:3 Coordinates=T from=T ORCA-job=T int=T E=T -1253.934929368563=T energy=-23252.819223887214 pbc="F F F"
N       -2.07259876      -0.10361986      -0.11449623       0.13673107       0.08097315      -0.62434896       5.07939426       2.22376506       2.14398959
C       -1.92776321      -0.38615452       1.35091019       0.61795949      -0.87315703      -0.34463136      -1.55792975       0.56127739      -0.85652483
H       -2.88790236      -0.43524679      -0.46941839       0.08712096       0.35470550      -0.15455618      -3.28581500      -1.09636128      -1.14583004
H       -1.95220494       0.92219659      -0.27233183       0.01863966      -0.30200637       0.08064906       0.06747853      -0.96788227       0.91324289
C       -0.71913757       0.27876264       2.04255727       0.35626222      -0.12000722      -0.78423830       0.96615624      -1.04686081      -0.61785823
S       -0.25323158       1.64116495       1.00998132      -0.21758662      -0.54925244       0.52139827      -0.33893924       1.45553719      -1.16953471
H        0.21112753      -0.35309539       2.02683719      -0.13311529       0.01079134      -0.19736879      -1.06075954       0.27730876       0.30050212
H       -0.96858792       0.57027490       3.06538394      -0.09711725       0.11235016       0.02464677       0.05475076       0.18729454      -0.09935720
C       -1.92079068      -1.86391337       1.60810142       0.48440637      -0.31963128       0.00386313      -0.96275473      -0.63197988       2.19364548
H       -2.82102424       0.01091448       1.86806978       0.00462807      -0.09967486       0.07224581       0.17264926      -0.21358830       0.03213945
O       -2.23703345      -2.29320722       2.72268926      -0.69696850       0.55179958      -0.67864757       0.33291185       0.37650868      -1.15088987
N       -1.58545659      -2.64225004       0.55608964       0.17926320      -0.23562837       0.59471493      -0.08402061      -1.97084963       1.19060016
H       -0.93052452      -2.16957062      -0.01350601      -0.13180618       0.09291387       0.41790564       0.93514234       0.20157863      -1.25303090
C        0.26043831       0.57305999      -0.36305957      -0.10110688      -0.27164532       0.98732080      -0.70363233       0.37553885       0.78837428
O        0.80793635      -0.45999736      -0.04025273       0.58266474       1.28569648       1.54747526      -0.08217531      -0.20580292      -1.08476114
C        0.05725801       0.99678878      -1.82593891      -1.38789245       0.51378677      -1.36940818       1.53129065      -2.19598532       0.91535294
H       -0.60256601       0.22224805      -2.21226853      -0.10052069       0.05551299       0.02104118      -0.33221772       0.22187328      -0.25371194
H       -1.36273996      -3.61215532       0.87842116       0.08305629      -0.09372149      -0.06659565      -0.16664189       1.26378381      -0.77853602
H        1.04116476       0.74082561      -2.24257757       0.25740579      -0.06875681      -0.00093553      -0.12413621       0.31563401      -0.34356642
H       -0.21210352       1.99232451      -2.09576502       0.05797470      -0.12504999      -0.05053220      -0.44075185       0.86920995       0.27575493
