23
Properties=species:S:1:pos:R:3:momenta:R:3:forces:R:3 energy=-34120.70098939347 pbc="F F F"
N        0.70184382      -2.23307297       2.17176074       0.53211474       0.20685826       0.01411936      -0.09232958       0.75480300       0.10191844
C       -0.63496016      -1.67121036       2.07492398      -0.47151537      -0.33010601       0.10298399       0.25499162       1.21054959      -1.51327634
H        1.04882733      -1.83911351       3.04957245       0.02651131       0.00200569       0.30757228       0.37103361      -0.30844605      -0.05169289
H        1.25092180      -1.78857345       1.40454260      -0.05898337      -0.07737356      -0.34353044      -0.31481272      -0.52964890       0.76601344
C       -0.59010088      -0.13808240       1.63967810       0.07126687      -0.71327941       0.27494691      -0.90096575      -0.11081448       0.83734763
S        0.34803892       0.26265697       0.13353018       0.67663880       0.47262879      -0.39475474      -0.02215556      -0.57943356       0.51843484
H       -0.24546777       0.43651824       2.51122399      -0.04368343      -0.10913925       0.10352819       0.34451503       0.13530199      -0.29827669
H       -1.60744713       0.22214282       1.40912469       0.12237287      -0.07462247      -0.12844203       0.31815931      -0.27136099       0.49904656
H       -0.26058059      -0.76304980      -0.49180926      -0.12091249       0.06277063      -0.18401180       0.37280753       0.14806273      -0.52965492
C       -1.44621096      -1.74669156       3.37108503       0.55538746       0.70755766      -0.46707862       0.61828852      -0.91728389      -0.08703463
H       -1.19254241      -2.18470476       1.27075973       0.23141559      -0.08034878       0.12922742       0.13784945      -0.06592721       0.21242148
O       -0.91595079      -1.88832520       4.46915230      -0.48702567      -0.55263094       0.14417659      -0.51727110       0.48366594      -0.70782214
N       -2.78130192      -1.67981921       3.12248199       0.16031228      -0.13065023       0.75426900       0.40728578       0.09878282      -1.19106448
H       -3.14448186      -1.82733220       2.17325084      -0.08448994      -0.22245329      -0.15360674       0.40280989       0.31840715       0.63924682
C       -2.69912244      -0.33198363      -0.65131545      -0.28801198       1.57753664       0.07367541      -0.14357796       0.40192085      -3.76749589
O       -3.06788514      -1.04717858       0.19887309       0.26483645      -0.70654466       0.60144750      -0.94807249      -1.39610922       2.50370145
S       -1.88731225      -1.13291586      -2.16500865      -1.34283302       0.16551236       0.18542041       0.20366677       0.79417739       0.03673577
H       -2.44799438      -2.35225817      -2.18103203       0.03094147       0.14169249      -0.04701684      -0.20948891       0.23274052       0.49652496
C       -3.01276957       1.13965054      -0.81048236       0.07292867      -0.22111856      -0.97925123       0.82406485      -0.51439869      -0.41867650
H       -2.06461870       1.65484053      -0.80803979       0.29697714      -0.08340064       0.06293175       0.57630998       0.30189973      -0.10948226
H       -3.41121768      -1.84271095       3.85801666       0.05261282      -0.02014600      -0.09946487      -0.82364678      -0.24144143       1.19510138
H       -3.51082082       1.43967221       0.10134496      -0.30633860       0.07201425       0.12313624      -0.77582210       0.31224859      -0.07520863
H       -3.48786131       1.38461511      -1.78807657       0.10947761      -0.08676237      -0.08027754      -0.08363926      -0.25769573       0.94319284
