20
Properties=species:S:1:pos:R:3:momenta:R:3:forces:R:3 Coordinates=T from=T ORCA-job=T int=T E=T -1253.934929368563=T energy=-23253.815800520922 pbc="F F F"
N        0.50511634       0.05860138       0.19420493       0.35292035      -0.28072325      -0.92984836       0.55715993      -0.22229815       0.37568041
C       -0.72526085       0.59328080       0.74287084      -0.06914313      -0.34170346       0.04668230      -1.54428458      -3.36880732       0.58316755
H        0.94308478       0.68629964      -0.44426574       0.13064649       0.08936975       0.00750098       0.61771065       0.45648053      -0.31013274
H       -3.30834528      -0.49125493       2.94478705      -0.15869319      -0.13428751      -0.00226658       0.10291040       0.39197098       0.04511474
C       -1.06841529      -0.18534984       2.12719807       0.33520760      -1.29322404      -0.67984018       1.74302208       1.79892147      -0.37322271
S       -2.41511386       0.51075572       3.20058879       0.43589582      -0.74507687       0.50373791       0.25110191      -0.97977136      -1.01179040
H       -0.12882205       0.09579538       2.67967869       0.14802210       0.05756912      -0.07725969      -0.81184310      -0.73441410      -0.14015529
H       -1.07149206      -1.26798271       1.94221518      -0.11954018       0.37027664       0.01066284      -0.32056367       0.32951617       0.22783603
C       -1.81789811       0.46169729      -0.32848844      -0.31000258       1.32381527       0.26702172      -1.07561004       0.33327237      -0.68304503
H       -0.63009639       1.62073487       0.98245746       0.04449888       0.21466197      -0.00169450       0.24007130       1.13394499       0.00784385
O       -2.52621310       1.41700734      -0.60020308       1.07817286      -0.32509764      -0.13697742       0.11930507       0.38242289       0.23281221
N       -1.96931365      -0.69759953      -1.05078705      -0.62301462      -0.46989740      -0.62217669       0.76706278       0.25632572       1.03944468
H       -1.59738442      -1.59180757      -0.76101741       0.06663192       0.00507360       0.47154323       0.17613152       0.00150990      -0.04381451
C        0.85421566      -1.26853920       0.02387786      -0.59413242       0.70204642      -0.14309031      -1.03053055       0.70431781       0.30310932
O        0.15114447      -2.22797566       0.27513092       0.38552056      -0.10427359       0.70002654      -1.63310528      -0.36046672       0.63425016
C        2.18789630      -1.61035872      -0.42732290      -0.98247748       0.19826861       0.40446219       1.39837563       0.28290600      -1.49306202
H        2.82415266      -0.81175325      -0.83194632      -0.17270868       0.46708836       0.07917737      -0.13536790      -0.08751714       0.19670475
H       -2.58709282      -0.61260460      -1.83192097       0.11680403       0.23750508       0.10319150      -0.44463977      -0.17683208      -0.18768722
H        2.07001707      -2.42972085      -1.13585808      -0.25386149      -0.13104923      -0.08690552       0.01049424       0.13733584      -0.42401913
H        2.61788109      -2.10623248       0.40784299       0.18925278       0.15965955       0.08605266       1.01259947      -0.27881691       1.02096534
