22
Properties=species:S:1:pos:R:3:momenta:R:3:forces:R:3 energy=-30130.577490247128 pbc="F F F"
O       -5.62152708      -2.01499304       7.02213514      -1.20824029       0.21213799       0.66460718       0.90876066       1.84329147       0.66066596
H       -5.19457108      -0.63941290       6.45037622      -0.12506327      -0.42759574      -0.13736349       0.08312745       0.34630399       0.10737028
O       -5.03848264      -3.20551000       6.53407060      -0.95070637      -0.18763836      -0.41834601      -0.51000331      -2.54840528       0.13472012
H       -5.22785742      -3.95810478       7.27044701      -0.11415945       0.24014581       0.00948554       0.28678435       0.55858588      -0.34417340
H       -6.58516997      -2.06268657       7.08920845       0.00704889       0.06092169       0.05978586      -0.80661446      -0.74851036      -0.35022807
H       -4.70031775      -2.95358860       5.64828942       0.15415132      -0.02242222       0.08067220       0.10343996       0.61990081      -0.06846289
S       -4.57221469       0.47404869       5.90074879      -0.50087351       0.17034744      -0.86579714      -0.27351129      -0.60000280       0.38133434
S       -3.94031378      -1.24531583       4.18511729       1.42124734       0.14868685       0.88381643       0.36141324      -0.43376257      -0.73611906
C       -5.26257137       1.52415765       7.24927508       1.30827899       1.04301293      -0.92758140      -0.03548393       1.59989083      -2.78327775
H       -4.76443991       1.39084478       8.15179647       0.33680730       0.31998228       0.10793149       1.95919061      -0.04093907       1.54205835
H       -5.09509593       2.56007418       6.83420928       0.05107832      -0.29691308      -0.17766730      -0.30541918      -0.76417875       0.77676517
C       -3.87139276      -2.02878159       2.41941156      -0.19503809       0.00148378      -0.40509427       1.91394424       0.08919452       1.10024929
H       -4.13246888      -3.06437835       2.53560471      -0.18825156      -0.19172572      -0.18269976      -1.05311573      -0.32246521      -0.20829555
H       -2.77663119      -2.08220453       2.22474629       0.26328264      -0.00700115      -0.09515640      -0.64683396       0.34509262      -0.05025336
C       -4.58143297      -1.03162330       1.57638534      -0.16919357      -0.05177711       0.46515671      -1.63489687       1.45865238      -0.74430132
H       -4.04800774      -0.09094893       1.66999055       0.07851127       0.17354196       0.03633975       0.59997422       0.23991430      -0.28351805
H       -4.72558635      -1.20960350       0.49031217       0.29616789      -0.18610655      -0.15438022       0.29278320      -0.44537982       0.52638662
H       -5.57097405      -0.67662889       1.96901204      -0.44901552      -0.22510193       0.15264333       0.44055510      -1.03150356      -0.10420667
C       -6.66014560       1.21149489       7.61190281      -0.00983681      -0.42898751       0.71742711      -0.93962240       0.27986830       0.23942350
H       -7.00428404       1.97125619       8.28937516       0.00832492      -0.09470611       0.10957760       0.05578266       0.14754647       1.26737583
H       -7.44894941       1.29796219       6.89773099       0.02413700      -0.25434137       0.14047612      -0.24913183      -0.38927084      -1.50740874
H       -6.65078497       0.22133877       8.05157212      -0.03865797       0.00405680      -0.06383308      -0.55112302      -0.20382336       0.44389459
