20
Properties=species:S:1:pos:R:3:momenta:R:3:forces:R:3 Coordinates=T from=T ORCA-job=T int=T E=T -1253.934929368563=T energy=-23252.72120111583 pbc="F F F"
N        0.22982733      -1.00908941       0.64716017       0.76540062      -0.63408203      -0.01795468      -0.92669465       1.28745723       0.25192926
C        0.01172949       0.28256842      -0.03833703      -0.76636319      -0.64131593       0.12821558       2.07388687       0.91794229       1.36439312
H        0.84500862      -1.70212352       0.25643826      -0.08946624      -0.21478169      -0.16077044       0.49993217       0.27185377      -0.69723159
H        0.60759657      -0.62659285       1.51296954      -0.06778955      -0.27584095      -0.20493482       0.25251583      -0.93408814       0.49268429
C       -0.92184600       1.17607023       0.82547965      -0.24858240      -0.06823243      -0.08321158       0.82495928      -0.48123676       0.72317553
S       -0.92499315       0.58610700       2.54086319       0.22369255       2.09207332      -0.53830539      -0.88884059      -0.67898539      -0.26176692
H       -1.89089609       1.23284759       0.37927585      -0.01851152       0.17664978       0.18996919      -0.94511825       0.01492299      -0.00779676
H       -0.52294661       2.17915758       0.92868067      -0.12470961      -0.13010107       0.18049022       0.03570832       0.38265526      -0.28278381
C       -0.61349190       0.21237338      -1.37685000       0.10703612      -0.60841861       0.45160966       0.04961851      -1.07534409      -0.81018156
H        1.00405928       0.88220953      -0.03002315       0.11892078       0.01185605      -0.19392506      -1.23601758      -1.06008148      -0.53367895
O       -1.67369475      -0.33896205      -1.61832824       0.61084442      -0.26741785       0.51549698      -0.33906293       0.12779237       0.24438010
N        0.13990754       0.73916175      -2.35948834      -0.54345230      -0.04382968      -0.17447425       0.37397289       1.12619066      -1.47292280
H        0.87770092       1.40367403      -2.17173735       0.16749222      -0.09949691       0.05844072      -0.01706737      -0.15298459       0.24874806
C       -1.52954893      -1.17003305       2.31294939      -0.13332888       0.34156778      -0.11105636      -1.08815730       0.81425584      -1.95139454
O       -1.16973685      -1.98005918       3.08789598       0.69617892       0.21449867      -0.17077971       0.71712255      -1.44207048       1.71266913
C       -2.49397678      -1.57835729       1.16423894       0.11652524       0.27023709      -0.01925168      -0.30473232       1.49464881       0.52074003
H       -2.69384868      -0.72848605       0.50494330      -0.16864792      -0.14356957      -0.20420734       0.13108565      -0.27879959      -0.16165492
H       -0.35398035       0.93646644      -3.22394025      -0.26666475       0.00412325       0.21973078       0.08386148      -0.29809090       0.03019245
H       -3.46579376      -1.90861865       1.53175384      -0.16320436       0.09777837       0.07416306      -0.00552693       0.06463839       0.58964878
H       -2.12561973      -2.41606688       0.59001857      -0.21536814      -0.08169738       0.06075516       0.70855504      -0.10067603       0.00085059
