23
Properties=species:S:1:pos:R:3:momenta:R:3:forces:R:3 energy=-34119.34981297769 pbc="F F F"
N       -0.90594078       1.62411276       3.10618640      -0.06387375      -1.08040901       0.45063282      -1.81559753      -1.23822665       0.02095814
C       -1.90946975       0.93477657       2.29168449       0.33986547       0.62431321       0.34355088       1.19330382       0.19402927      -2.65848780
H        0.01518003       1.27140137       2.98757451       0.22917992       0.13596078       0.26308873       0.96886319      -0.20653212      -0.46178144
H       -0.99158966       2.57169725       2.79574917       0.01133108      -0.01214524      -0.41451009       0.53845304       0.81816089      -0.12134776
C       -1.80915214      -0.61728406       2.23474837      -0.04285424       0.19221653      -0.38115424      -2.07756376      -0.19167936      -1.24796200
S       -0.24866614      -1.20515298       1.53780565      -0.53051163      -0.56498958       2.41693060       0.19663541       0.57442210      -0.53216788
H       -2.71398745      -1.16618937       1.71308889      -0.24724616      -0.13797566       0.28280530       1.89188409       1.56563187       0.68377352
H       -1.87096193      -0.96311534       3.23324083       0.10165279      -0.00125123      -0.02580539       0.11034907      -0.40407065       1.40516281
H       -0.49598959      -2.52372434       1.50669337      -0.14794330      -0.04330350       0.12806772       0.01590942      -0.61759304       0.04038361
C       -2.04474204       1.68231292       0.82803316       0.46493151      -0.26392849      -0.55787473       1.31054521       0.44276243       0.98506236
H       -2.83023843       1.26006208       2.68685990      -0.37679069       0.10418190      -0.12496858      -1.71640587      -0.16007923       0.97958213
O       -1.72103348       2.86962020       0.80790733      -0.17030788       1.23206527      -1.07631167      -0.58696228      -0.88833451      -0.14897676
N       -2.50353622       1.01500471      -0.26375959      -1.67573179       0.91902018       0.20249214      -0.15594545      -0.75607562       0.28262573
H       -2.53712540       0.00515091      -0.32190667       0.04772311      -0.01956517      -0.04644687      -0.11461630      -0.16496134       0.36921507
C       -1.49417278      -2.68129337      -0.40917551       0.58859900      -0.01723981      -1.05879061       1.46831121      -1.01888977      -0.30212471
O       -2.61679933      -2.38342509      -0.14765519      -0.21046985      -0.40394876      -0.74498892      -0.65499967       0.74018699       0.14860871
S       -0.74090157      -4.20272225       0.39366162       1.38077020      -1.46324582       0.24464296       0.44582465       0.93180698      -0.30913750
H       -1.68247352      -4.44187142       1.30563607       0.16378000       0.06778778      -0.05130924      -0.44540936       0.15256502      -0.03255794
C       -0.68157241      -2.12188848      -1.60734740       0.17771746       0.97102786       0.85505336      -3.78387618      -0.09879266      -0.34578824
H       -1.41573981      -2.41303289      -2.48458141      -0.15655885       0.04043974       0.00415597       1.64827549       1.07561243       1.32208538
H       -2.66534750       1.46442283      -1.15113796      -0.28664347       0.13408225       0.03002397       0.23415488       0.56642467       0.20300803
H        0.24383173      -2.57533221      -1.77935835       0.13800761      -0.23562969      -0.41600017       1.56933105      -0.93258744       0.01398982
H       -0.56653777      -1.03366877      -1.46561495       0.26537305      -0.17746459      -0.32328375      -0.24046423      -0.38378054      -0.29412258
