20
Properties=species:S:1:pos:R:3:momenta:R:3:forces:R:3 Coordinates=T from=T ORCA-job=T int=T E=T -1253.934929368563=T energy=-23251.260460476784 pbc="F F F"
N        0.19855361       0.04065453       0.71340048       0.29944081       0.67962236       0.82250531       1.01009298      -1.50349512       0.67333389
C       -0.62964244      -0.26674137      -0.47763455       0.43928961      -1.14832744      -0.35327182      -1.00370336       0.37184870       1.60539246
H        1.05134608      -0.55423799       0.92293025      -0.31777688       0.27362855      -0.30850084      -0.79459918       0.75346017      -0.76630509
H        0.19275789       1.11680358       0.63861112       0.12290550       0.22076255      -0.27556703       0.51767229       0.09561189      -0.40893445
C       -1.95668558       0.51493470      -0.15150687      -0.42907937       0.55864380       0.42447571      -1.52085090       0.82903546      -0.70466834
S       -1.52313290       1.68242403       1.22727852      -0.14358632       0.50595866       0.09428174      -1.40298795      -1.03159215      -0.82346710
H       -2.84726048      -0.17678018       0.03345618       0.06562586      -0.17893876       0.03589986       1.34652686       0.71376801       0.59541404
H       -2.37358444       1.16335883      -0.98099064       0.09539157       0.21715689       0.08256829       0.96154147      -0.77476358       0.50780427
C       -0.81781091      -1.75977219      -0.71611704      -0.36611053      -0.50421753       0.27116688       0.70318478       1.27882898      -3.74546432
H       -0.19841954       0.15597579      -1.36919462      -0.12805530      -0.02150660       0.01765521       0.37134230      -0.03337824      -0.07499707
O       -0.73357681      -2.04997630      -1.94341936       0.20207552      -0.27104398       0.27073698      -0.55755103      -0.58621055       2.88381052
N       -1.00346281      -2.56364323       0.32969492       0.21970074      -0.20660692      -0.06140643      -0.22849414      -1.20085871      -0.36781836
H       -1.05633003      -2.20980711       1.30085534       0.16032502      -0.29098160      -0.15655162      -0.28028101      -0.27319783      -0.69912732
C       -0.61957310       0.14081568       1.96187025      -1.25000834      -0.86225452      -0.57377014      -0.52830160       0.88301721      -0.12144655
O       -1.35247580      -0.82051734       2.34877196       0.27719461       0.61021377       0.62487390       0.31507587       0.08301163      -0.73344243
C        0.25734910       0.73410504       3.04648551       0.04228807       0.56111274      -0.97197914      -0.53479910      -0.10248947       1.65209174
H       -0.39169876       0.95018607       3.89726196       0.20948269       0.00012498       0.15010679      -0.20281768      -0.27589104       0.06611079
H       -1.22517451      -3.52453071       0.02749862       0.05781126      -0.10840063       0.14855787       0.23575649       0.65343773       0.81309605
H        0.71641415       1.69147310       2.85528680       0.09600366      -0.20930570       0.06423681       0.72076166       0.11093017      -0.65467739
H        0.88595347      -0.08674204       3.35078879       0.34708289       0.17435910      -0.30601888       0.87243074       0.00892664       0.30329475
