23
Properties=species:S:1:pos:R:3:momenta:R:3:forces:R:3 energy=-34119.064840888495 pbc="F F F"
N       -1.59995300       1.38211181       2.64991387       0.21438097      -0.31734107      -0.01089851      -0.48080257      -4.16557789       0.33594778
C       -2.60011502       0.73726869       1.86698370       0.36706522      -0.96980228      -0.19979334      -0.27854973      -0.24575609      -0.16497552
H       -0.78190292       1.31502652       2.13632039       0.05871319      -0.00860628       0.15519279       2.40835881       0.12014747      -0.93703294
H       -1.80866228       2.28041040       2.81103194      -0.08827142       0.11189380       0.24296808      -0.91329688       4.34916544       0.66902435
C       -2.62583451      -0.75994619       2.14365640      -0.54644518       0.85374718       0.24484777       1.37543547      -1.15549135      -3.43349981
S       -0.89057074      -1.32372053       2.29887105      -0.60921774       0.01312434      -0.12216257       0.56070777       1.28818886       0.45694830
H       -3.12068161      -1.32315410       1.26648379       0.22413231       0.26141080      -0.38474258       0.52416891       0.65171045       1.87541342
H       -2.98870503      -0.92027269       3.09257733      -0.23284507      -0.12696635      -0.02136699      -1.63460839      -0.65767580       2.06201601
H       -0.85922763      -2.59436169       1.88093932      -0.41804326      -0.16471696       0.08801232      -0.41870147      -0.54386712      -0.51997428
C       -2.43359058       0.93982733       0.34151449       0.78941296      -0.48813727       0.27786469      -3.20466495      -1.88198006       1.36454248
H       -3.53481420       1.08307723       2.25761930      -0.36269280      -0.26415062       0.00619507      -1.14959073       0.57385385      -0.31304181
O       -1.40936877       1.34750150      -0.10279325       0.08688027       0.79942045      -0.19368554       1.92871618       1.12689900      -1.31149852
N       -3.49889985       0.45959197      -0.40243308      -0.10932182      -1.09527938      -0.22739048       1.24712992       0.96905500      -2.09978247
H       -4.39759989       0.13732260      -0.09590889       0.19785384      -0.08234477       0.13793533       0.01568735       0.05280387       0.59773821
C       -0.55991807      -2.00018462      -0.28817195       0.13839013      -0.65449567      -0.05281584       0.47071699      -0.42724006       0.64707307
O       -1.72538378      -1.86093680      -0.53361067       0.76693162       0.56054934      -0.53349992      -0.10061730       0.19035195      -0.38569102
S       -0.06440163      -3.60225518       0.45000670       0.11603373       0.77000432       1.06556342       0.08779687      -0.13265820      -0.19406117
H        1.15034217      -3.23923064       0.89379805       0.01398109       0.12789214       0.02243919       0.05223925      -0.12360941      -0.06050542
C        0.55691606      -1.03463037      -0.62522748      -0.12812495      -0.11271017      -0.25740457      -2.12357140       1.97792768      -1.26740563
H       -0.01064333      -0.06546430      -0.97653957      -0.21370331       0.03653626      -0.18265115       1.24216390      -1.94638753       0.19074774
H       -3.36598658       0.45427308      -1.44215831       0.00504662      -0.07047916      -0.13561838      -0.13345109       0.03274674       1.58636975
H        1.19805998      -1.46847864      -1.41793554      -0.02086709       0.45377283       0.24705638      -0.07931948       0.38315439       0.55536312
H        1.05553579      -0.68684286       0.26757908      -0.24928959       0.36667730      -0.16604470       0.60405302      -0.43576089       0.34628385
