20
Properties=species:S:1:pos:R:3:momenta:R:3:forces:R:3 Coordinates=T from=T ORCA-job=T int=T E=T -1253.934929368563=T energy=-23252.96365728014 pbc="F F F"
N       -0.54734932      -1.03478938       1.69898307       0.02559336      -1.08231472      -0.80016579      -1.34765641      -0.57896033       2.23944862
C       -1.47405558       0.11617166       1.87667884      -0.91623445       0.21781319       0.18672045       0.37623739       0.36948133       1.20444643
H       -0.24215899      -1.25147668       2.70929317      -0.02578762      -0.20083775       0.10430714      -0.36730742       0.01087862      -2.11132407
H       -1.21516559      -1.79413153       1.42868835       0.22251901       0.11761970       0.30296941       0.91498341       0.27816578       0.29857578
C       -2.06647079       0.55468320       0.53252314      -0.50842116      -0.95412075       0.24148634       1.53709888      -0.65719587      -1.30262995
S       -2.18113102      -0.91219471      -0.59403303      -1.29810842      -0.19373954       0.60769262       0.16726689      -0.49020601      -0.27042129
H       -1.44848949       1.27164750      -0.06038732       0.60362226      -0.28989151       0.13394124      -0.38990936      -0.14649343       0.91487372
H       -3.07945773       0.90259299       0.66927027      -0.05958236       0.15060000       0.06445284      -0.31886286       0.32564974      -0.19853461
C       -0.54791575       1.24860501       2.45766563      -0.76141475       0.85902322       0.05048613      -1.81821096       0.35706133      -1.08814430
H       -2.38570617      -0.10659852       2.54657617       0.02998057      -0.33330128       0.21441103       1.37178791       0.13281465      -0.47211856
O        0.52604180       1.45966479       1.93962785      -0.04339794       0.84566928      -0.85077827       0.41672325       0.06176843       0.47945604
N       -1.15752175       2.05036568       3.39178098       0.60697687       0.12937075      -0.45890126       1.25881076       1.56134629       0.69986928
H       -2.15978049       2.04350203       3.47885844       0.26219277       0.07511906       0.28823803      -0.06407964      -0.14455268       0.03002964
C       -0.46498438      -1.59148623      -0.85269729      -0.07257483       0.44791227       0.65336822       1.36974566      -1.40530721       0.59429311
O       -0.19911655      -2.78155905      -0.66966276       0.99163507       0.45334883      -0.43774434      -0.95004237       2.58365917      -0.55681568
C        0.63491641      -0.57730862      -1.27734196       0.45617998      -0.23605385      -0.62439714      -0.57714021      -0.13659811       1.88489962
H        0.21312797       0.10843738      -1.97516038       0.22810009       0.13028098       0.04480171      -0.19582053       0.55465555      -1.04803991
H       -0.68160934       2.94752007       3.70636541       0.22244281      -0.00149510       0.35624789      -0.75562239      -1.88310468      -0.79116517
H        1.54421906      -1.08012839      -1.64453473       0.19051379      -0.05866837       0.12130508      -0.49452329       0.05103274       0.11055254
H        0.87475384       0.06410850      -0.37769760      -0.15423456      -0.07633273      -0.19844113      -0.13347878      -0.84409571      -0.61725175
