22
Properties=species:S:1:pos:R:3:momenta:R:3:forces:R:3 energy=-30136.29304837174 pbc="F F F"
O       -4.42504086       2.76995659      -2.86239067       0.27998714       0.67534868      -0.66670745      -0.05507515      -0.20806270       1.22247070
H       -3.97394132       2.57769880      -1.96661710       0.27490884       0.11859699      -0.21640304      -1.81581356       0.47201779      -1.86929840
O        8.68038364     -37.97580297     -14.01594630      -0.18516419      -1.07749064      -0.10069936      -0.12007511       2.10565073      -0.52251596
H        8.77960637     -38.89346699     -13.84403537      -0.17360807       0.31542724      -0.12765104      -0.31725535      -1.16049743       0.74429083
H       -5.41984998       2.83752209      -2.78764103      -0.04788412       0.10665588       0.01770801       1.87088871      -0.26395509       0.64682770
H        8.05119724     -37.54501746     -13.40330144       0.10194557       0.00461625      -0.52521415       0.43733045      -0.94515331      -0.22177493
S       -6.73705726       3.22943061       8.41415953      -0.38110994      -1.33051424      -0.34153800      -0.35746364       0.19550411      -0.44670938
S       -5.76474352       4.63532174       9.52574560       0.99145976       0.99089890       0.12765054       0.61387371      -0.05932241       0.48897598
C       -8.01115997       2.82114906       9.65811859      -0.56379029       1.36765362      -0.17895875       0.79414105       2.13419127       1.31082535
H       -7.33680089       2.58487290      10.53009945      -0.21227508      -0.01745804      -0.02107672      -1.31584620      -0.36886483      -0.40081131
H       -8.50867949       3.79329468       9.91299714       0.00072092       0.00738543      -0.11247967       0.33670184      -0.70563537      -0.08410513
C       -6.75373745       6.15173495       9.49982459       0.27387550      -0.16594664       0.44015519      -0.59289318       1.29581618      -0.13044113
H       -7.88351835       6.04079613       9.66629028       0.00392913      -0.10641215      -0.30412669       1.60114157      -0.41095155      -0.31541696
H       -6.60734680       6.54517392       8.43480491       0.06368274      -0.25300074       0.09058719      -0.29070330       0.05937676       1.63516283
C       -6.23526114       7.11652407      10.68086060      -0.30382592      -0.48004662      -0.45844904       0.44135442      -1.06640267      -2.80198455
H       -6.87505373       7.99633929      10.60607500       0.07030470      -0.21375838       0.42901755       0.06900078       0.15240315       0.81013155
H       -6.19401684       6.56241914      11.60009522       0.03838259       0.22800218       0.26035924      -0.89192218      -0.07816775       0.80245692
H       -5.17677626       7.39478454      10.55222478      -0.17262878       0.08354665      -0.04573750      -0.31077367       0.19827035      -0.49662724
C       -9.02559376       1.82492952       9.19274375       0.05794392      -0.57263395       1.30002141       1.70480847      -0.97761309      -1.68337202
H       -8.92272604       1.76352124       8.07704408      -0.20862799       0.12869013       0.03794446      -0.25952053      -0.26976037       0.85617095
H       -8.78311194       0.87453482       9.64155704      -0.16349318       0.49701409       0.28227263      -0.06242069      -0.77105892      -0.11100885
H      -10.02983091       2.03874163       9.41037554       0.25526690      -0.30657436       0.11332539      -1.47947836       0.67221469       0.56675309
