20
Properties=species:S:1:pos:R:3:momenta:R:3:forces:R:3 Coordinates=T from=T ORCA-job=T int=T E=T -1253.934929368563=T energy=-23253.718700316622 pbc="F F F"
N       -1.02482362      -1.56960570       0.19671208      -0.23494096      -0.75021421      -0.35967607       0.04409530      -2.00930949       0.43441679
C        0.10939213      -0.72499753       0.10470234       0.03334537      -0.81640460       0.27854582       1.35624790      -0.47300705       0.48177135
H       -0.96097983      -2.28247707       0.92949169       0.01842482      -0.30627585       0.05380675      -0.50374281       0.79047400      -0.23589815
H       -1.85310609      -1.00998574       0.18878020       0.04603858      -0.09309578      -0.37998562      -0.74672872       0.02115599       0.59583821
C       -0.18764112       0.60659072       0.80293615       0.20041516       0.42533174      -0.10291605       0.66055048      -0.15505685       0.00219678
S       -0.67593492       0.26621713       2.52180798       0.41894533      -0.45779731      -0.80629420      -0.80002236       0.38382259       0.32985548
H       -1.04793324       1.03331328       0.30814986      -0.28029815      -0.04261222       0.19734251      -0.32106084       0.45801651      -0.01154131
H        0.65588461       1.31231976       0.76263196       0.06655321      -0.11829962      -0.20590159      -0.13284689      -0.26128167       0.12115598
C        0.44879417      -0.57515377      -1.37050623       0.81823056      -0.11336417      -0.15282663      -0.34525618      -1.32114625      -0.02843589
H        1.05320267      -1.20794081       0.56802243       0.08634932       0.24539770       0.13721652      -1.42314887       0.60793388      -0.57561785
O        1.23705837       0.23831165      -1.75346906       0.89275690       0.37085898       0.17722115       1.28572130       1.74798334      -0.62529278
N       -0.07172179      -1.53805689      -2.18997090      -0.93054620       0.15274321       0.11397199      -0.57794106      -0.23050725      -0.38026190
H       -0.85794667      -2.12237490      -1.89431168       0.04451284      -0.19555918       0.15749105       0.62715799       0.47533825       0.15400492
C       -2.48066922       0.30211651       2.29424729       0.69889633       0.84554174      -0.29016568      -0.28468065      -0.49732450      -1.25510080
O       -2.92338425       0.59217075       1.18798259      -1.05024512       0.41369237       0.55764072      -0.01371348      -0.20821807       1.37101865
C       -3.40990069      -0.23367130       3.44489452      -0.22966850       0.37085804       0.01390000       1.19633949       0.22899961      -2.45550728
H       -3.02254933       0.21276645       4.36973857      -0.17228874       0.03583440       0.12996882      -0.56614083      -0.48742470       0.13770938
H        0.11516375      -1.45450085      -3.18261716      -0.03807125       0.26660368      -0.07725720       0.02913916       0.08832850       0.29095134
H       -3.27027187      -1.35822327       3.34115561      -0.43877655      -0.17337766       0.28324543      -0.42258766       1.26165020       0.71540958
H       -4.43482205       0.08146597       3.09235488       0.05036690      -0.05986196       0.27467105       0.93861902      -0.42042685       0.93332732
