20
Properties=species:S:1:pos:R:3:momenta:R:3:forces:R:3 Coordinates=T from=T ORCA-job=T int=T E=T -1253.934929368563=T energy=-23253.554689861947 pbc="F F F"
N       -0.12469202      -1.03648300       1.84304134       0.13347391       0.23522943       0.07980312       0.69393340       1.70256711       2.08613448
C       -0.20950456      -1.49229394       0.50848574      -0.26123313      -0.35739596       1.54663474       0.11006328       0.00118526      -0.80697668
H       -0.10928541      -1.83091406       2.49452735       0.12916056       0.16908573      -0.16665541       0.14652601       0.47843987      -0.29275802
H        0.71318835      -0.44992021       2.03345581      -0.27671381      -0.08420333      -0.04727316      -0.90877063      -0.24958864      -0.95797328
C       -0.34944121      -0.27043427      -0.57704461      -0.32706684       0.33452008       0.17964372      -0.83581507      -0.78038186       1.22932410
S        0.26145597       1.27543946       0.08033978       0.93396560      -0.33383619      -0.28765323       0.18076391      -0.06129197       0.55723317
H       -1.45472139      -0.10044906      -0.79312646       0.06909961      -0.01181598       0.17981284       1.44059718      -0.34130433       0.02303131
H        0.23356773      -0.41761788      -1.47439887      -0.12067704      -0.09752829       0.19463169      -0.06099355      -0.53361619      -0.40803185
C       -1.50910462      -2.26310142       0.38952144      -0.07740500       0.29826422      -0.82678300       0.07930074       0.18533190       0.05957134
H        0.60885353      -2.24591572       0.30556727      -0.17021196      -0.16246904      -0.05847923      -0.68407995       0.91827905      -0.74387622
O       -1.59954273      -3.03185246      -0.53155737      -1.06577847       1.11847334       0.38629825      -0.54631954      -1.15338671      -1.22398496
N       -2.50782547      -2.03008792       1.28071860       0.15451970      -0.58459745      -1.10977148       0.74841279       0.20963883       0.16029656
H       -2.37255193      -1.33923389       2.01378968      -0.09722272      -0.15617600      -0.37912205      -0.27541637      -0.03128940      -0.46193618
C       -1.08878682       1.56043720       1.19176993       0.47771658       0.29474435       0.35394216       0.29292860      -1.31003309       0.74445601
O       -2.15892282       1.00428267       1.07414479       0.36623674      -0.98991080      -0.12049197      -0.06522965       0.32721138      -0.21770257
C       -0.78322512       2.40769512       2.38917946      -0.07875183       0.52987819      -0.53911943      -0.63353252       0.35940379       0.98489845
H       -1.39679009       3.30703603       2.33608344       0.14053764      -0.31690985       0.29593072      -0.05356038       0.24849010      -0.02085182
H       -3.40848727      -2.38587252       1.00882228      -0.29718116      -0.35422312       0.22532130      -0.16684178       0.03575233       0.25402969
H        0.24618555       2.68385425       2.53239178       0.17698904       0.35003613       0.09256223       0.63985956       0.17436348      -0.36847448
H       -1.09256786       1.90891262       3.32841198       0.19054311       0.11883478       0.00076750      -0.10182530      -0.17977032      -0.59640914
