22
Properties=species:S:1:pos:R:3:momenta:R:3:forces:R:3 energy=-30133.96865579545 pbc="F F F"
O       -2.36064218      -1.41996475       4.88792244      -0.04301116      -0.04411980       1.80054387       0.68951115       0.65192881      -0.00448207
H       -3.71956636       0.00904294       4.68955127       0.15868207      -0.17415650      -0.03610998      -0.16639945      -0.05629349       0.15546976
O       -3.13793565      -2.57691900       4.95274992      -0.02531578       0.21974296      -0.85055703       0.42645927      -1.39006531      -1.15557498
H       -2.93258567      -3.04553357       4.10221571       0.27570976      -0.21179072      -0.16751628      -0.16611220       0.58233011       0.83371532
H       -2.06402259      -1.35593832       5.81205142      -0.25587011      -0.05766017      -0.10521206       0.04211423       0.07316397      -0.11750168
H       -4.72084770      -2.16139624       5.49877185       0.19305822      -0.19083041      -0.00578253      -0.80859818      -0.12501035       0.05323333
S       -4.80145965       0.53179032       5.30582412       1.14999246      -1.02811583       0.10348990       0.32538137       0.99568622      -0.27865593
S       -5.76869810      -2.32075134       6.32675965      -1.11676909       2.47216349       0.66717563       0.07902291      -0.75767515       0.93993182
C       -4.37799726       2.28896319       5.00536433       0.01686208      -0.34780845      -0.87473763      -0.35639250       0.07404666      -1.37736630
H       -4.55801370       2.55529623       3.92883129      -0.18839615       0.24883623       0.01245866      -0.06720595      -0.49032921       0.81779683
H       -5.10221411       2.90610936       5.57136316       0.02053058      -0.00347017      -0.12685020       0.47272071      -0.33142489       0.08717494
C       -7.13432520      -1.75286976       5.34022179      -0.52685847      -0.98458002      -0.02329877       1.30219507      -0.01272830      -2.36955953
H       -6.82003219      -0.79615583       4.92428583      -0.04038342       0.05503783       0.09064637      -0.20102683      -0.09148189      -0.60654330
H       -7.88243311      -1.53070286       5.97217209      -0.16073750       0.22705503       0.19400605      -2.55482268       1.11993074       3.08492398
C       -7.77729323      -2.76569697       4.40704656       1.16048410       0.23578030       0.00524654       1.24622989      -0.44264862      -0.69739443
H       -7.88933539      -3.68160519       4.98819230      -0.08244909      -0.03888717      -0.19645202      -0.26675752      -0.26095182      -0.08388028
H       -8.76431536      -2.47790604       3.98863801      -0.16567099      -0.21914977      -0.19335333       0.64091259       0.13106491       0.21142277
H       -7.04089046      -2.98651204       3.60946426      -0.16206617       0.02497101      -0.09787128      -0.69123667      -0.10109743      -0.07183326
C       -2.91456058       2.56844802       5.32864728       0.36762499      -0.37614197      -0.09540602      -0.21702446       1.60746753      -1.90107691
H       -2.75003105       3.68157534       5.06593060      -0.14414937       0.14219174       0.02928853      -0.01234692      -1.47700572       1.21208310
H       -2.75128701       2.24640820       6.34779259      -0.24765283       0.11150153       0.08268139       0.77697492       0.38234881       0.38108850
H       -2.24173714       2.06908550       4.58101288      -0.18361375      -0.06056968      -0.21239007      -0.49359897      -0.08125579       0.88702810
