20
Properties=species:S:1:pos:R:3:momenta:R:3:forces:R:3 Coordinates=T from=T ORCA-job=T int=T E=T -1253.934929368563=T energy=-23252.483107708016 pbc="F F F"
N       -0.04236386      -1.10313341       1.21575409       0.27240702       0.45367396      -0.04343215       0.66198715       0.03384583      -0.00549564
C       -1.37685192      -1.48699147       0.69614088       0.81941867       0.41042374       0.11325641       1.68203497       2.32013273      -1.45800841
H        0.36031781      -1.90754468       1.72999386      -0.08048407      -0.21565394       0.05764744      -0.50286126       0.53904223      -0.15372214
H        0.57955157      -0.96709873       0.38779909       0.23035519      -0.12881262      -0.07280409      -1.07906237       0.28564912      -0.18015538
C       -1.64186281      -0.55205389      -0.53305234      -0.05086154       0.04697387      -0.17063476       0.35616851       1.95219576      -0.40738103
S       -0.05271819       0.32914897      -1.06051142      -2.00431502      -0.20386875       0.78138862      -0.29345194      -1.28854054       0.48972128
H       -2.36977672       0.29630494      -0.50148857      -0.14628830       0.06811549       0.12154985       0.42053872      -0.70502692       1.03321338
H       -1.98588853      -1.09933912      -1.38951074      -0.19642997       0.13962118       0.43568039       0.09267561      -0.64523184      -0.55365139
C       -2.45904954      -1.44927713       1.69849903      -0.41677482      -0.82090202      -0.63706649      -1.50693738      -1.87757111       2.06228566
H       -1.37617898      -2.44572982       0.27805788      -0.16945664       0.17131915       0.30397961      -0.05349115      -1.99691331      -0.37425959
O       -3.22913892      -2.43538587       1.81303763       0.10089412      -0.74195760      -0.88297859       1.18861353       2.44268417      -0.31967896
N       -2.40762173      -0.38959705       2.56132423       0.97328794       0.87294281      -0.97302498      -0.73674774      -0.77605510      -0.54203415
H       -1.77595069       0.37482378       2.38443525       0.06949932       0.27061300      -0.19225821       0.15231621       0.26410067      -0.07969745
C        0.23011011       1.16959043       0.49196175      -0.59431000      -0.74890421      -0.46709199       2.44115404      -1.02862523       0.36000683
O       -0.64575531       1.67711347       1.11410476       0.07728727       0.20215697       0.72722375      -1.74423289       0.82163668       0.99757522
C        1.71821335       1.30190839       0.99999074       0.87026893       0.38015752       1.09620692      -0.57636619      -1.82030749      -1.73033643
H        1.70897693       1.73128609       1.98619691      -0.18200763      -0.25276185      -0.09835912      -0.03664494      -0.19137390       0.61121696
H       -3.19484494      -0.26605269       3.18334109       0.08234410       0.12268257       0.03547857       0.14145836       0.02936579       0.02315948
H        2.28488197       1.94924573       0.35099320       0.00260791       0.05730661      -0.01975856       0.06734921       0.58959019      -0.45178813
H        2.26246499       0.31016458       0.89482324       0.34255823      -0.08312596      -0.11500304      -0.67450154       1.05140233       0.67903006
