20
Properties=species:S:1:pos:R:3:momenta:R:3:forces:R:3 Coordinates=T from=T ORCA-job=T int=T E=T -1253.934929368563=T energy=-23252.802915465734 pbc="F F F"
N        0.30828021       0.05600538       0.18256054       1.32228247       0.13294727       0.69205970      -0.89075272       1.38362193       0.56096797
C       -0.13187132       0.62655871       1.48232992      -0.31043105       0.18157219      -1.27551731      -1.40796661       0.28015256      -0.12626946
H        1.01968660       0.74043375      -0.02818502      -0.24216442      -0.29950713       0.07212178       0.71634996      -0.40784770      -0.92389297
H        0.70962751      -0.83748162       0.40014521       0.05852484       0.14673936      -0.20793641       0.22464243      -0.85226969       0.31354814
C       -1.19746006      -0.35202217       2.10489144       0.52263466       0.97594338      -0.79916110       1.39346838       0.77413154      -0.13712847
S       -0.86907316      -2.05585196       1.53614303      -0.46473512       0.61231153      -0.17242683      -0.21578095       0.35564239      -0.26170857
H       -2.18948785      -0.03853901       1.79265656      -0.13273318       0.03042720      -0.03231542       0.03048423       0.02438131       0.17654061
H       -1.11092779      -0.24297507       3.19690096       0.11715113      -0.15698866       0.02417323      -0.20826711      -0.52749532      -0.13327217
C       -0.82639186       2.00489945       1.19227720       1.05359095      -0.09934421       0.99533530       0.38992867      -0.70632082      -1.66471875
H        0.73860072       0.85041410       2.10124005      -0.09586753      -0.17548557      -0.34431932       0.04331249      -0.41207245       0.69068205
O       -2.00466416       2.00932054       0.86410268      -1.37355197      -0.70078905      -0.11241514       0.23335910       0.52125835       0.46281040
N        0.01388193       3.09266964       0.95343830       0.01670853       0.33222139      -0.60400285      -1.17918861      -0.96198863       0.30966431
H        0.86067869       3.15668020       1.51562915       0.09285532       0.05660958      -0.18615893      -0.33720845       0.60055602      -0.47499973
C       -1.31941530      -1.98959461      -0.28074326       0.88608796      -0.36792619      -0.59845995       1.11346092       0.87693809       1.54061640
O       -0.77642465      -2.79475840      -0.97193455      -0.57300517       0.02109755       0.81571375      -0.07133722      -0.38643789      -0.74730718
C       -2.23051288      -0.88133380      -0.71898261      -0.70397454      -0.54713079       1.17093009      -1.65642178      -1.07754612       0.17709431
H       -2.82746159      -0.59549837       0.18491701      -0.10647461       0.21715343       0.33088210       0.63788831       0.53148103      -0.90455365
H       -0.49313890       3.88693872       0.52713429       0.16326687       0.00582636      -0.39097570       0.90663511      -0.40422285       0.84078121
H       -3.02747346      -1.33708398      -1.38516171      -0.31804261      -0.16931651       0.04799231       1.25022495       0.70473689       0.09062436
H       -1.56760976      -0.10694183      -1.15473364       0.08787880      -0.19636035       0.57447995      -0.97283041      -0.31669888       0.21052095
