23
Properties=species:S:1:pos:R:3:momenta:R:3:forces:R:3 energy=-34120.58320927289 pbc="F F F"
N       -0.22049512      -1.60588838       1.42055048       0.65026673       0.43821715       1.23967368      -0.37980330       0.09286136      -0.37023601
C       -0.61367339      -2.16926342       0.12040469      -1.01963275       0.42311507      -0.55698728       0.76075149       1.29250300      -1.74866974
H       -0.38427308      -2.17990477       2.25752803       0.31647720      -0.11001470      -0.01183463      -0.38819280      -0.38087347      -0.89815021
H        0.77624860      -1.48051016       1.43097795      -0.02742435       0.23093242       0.12503636       0.56694609       0.25658390      -0.15749599
C       -1.99009580      -2.76590685       0.06490175       0.58270672       0.19208894       0.23763608       0.09553944      -2.02064896       4.22141600
S       -3.29029994      -1.61991257       0.35680466      -0.13877254      -1.34178849       1.12770647      -0.95534459       0.85459001       0.02843324
H       -2.06735212      -3.65792553       0.84174162       0.03401504      -0.37448491      -0.03859630       0.26857561       1.62374043      -1.46810925
H       -2.19884266      -3.18135471      -0.85412957       0.02123995       0.13730858      -0.48340631      -0.26385838      -1.07425058      -2.42295122
H       -2.80460901      -1.19111896       1.51822832      -0.09311726       0.11979851      -0.10324620      -0.06222731       0.23667827       0.31947799
C        0.37228668      -3.22442536      -0.40786982      -0.95615796      -0.49475224       0.52823087      -0.54530013      -0.76106620       2.30250835
H       -0.67573291      -1.37542356      -0.73759911      -0.13793772      -0.14068795      -0.04586017       0.50745505      -0.63554168       1.97077179
O        0.83092302      -4.09171685       0.34212997      -0.33361639      -0.85913140       0.46301468      -0.06525525       0.89744884      -0.78321147
N        0.54749185      -3.22736890      -1.73234598       0.19061412      -0.58950500      -0.45227079       1.18085706      -0.08078061      -2.81487465
H        0.34589646      -2.49179618      -2.42345486       0.11365281      -0.26564412       0.32475855      -0.30951127      -0.17522103       1.22141623
C       -2.07680013       2.11975826       1.67490993      -0.28452634       0.23135195      -1.05830029      -0.38746581       0.35950460      -0.67257662
O       -3.00472597       2.88196088       1.85919558      -0.25872337      -0.12765196       0.05627863       1.31180489      -1.10137177       0.03860456
S       -1.50600039       0.93489291       2.97756928       0.50041669       2.76263401      -0.89829470      -0.29500650       0.94628729      -0.38440447
H       -0.39525347       0.54253560       2.33237631      -0.28128392      -0.02581549      -0.13760139      -0.16083285      -0.13290875       0.04223011
C       -1.35902769       2.00387613       0.29475370       1.29475615       0.25525300      -0.16885982       0.32801285      -0.57252043       0.58498448
H       -0.46946151       1.31157050       0.32697468       0.05647196      -0.34573037      -0.01914786      -0.66072440       0.95234925       0.07234688
H        1.29374194      -3.81895635      -2.09598178      -0.12281672      -0.15544549      -0.23327599      -0.29276162      -0.16115479       0.46062019
H       -1.11251556       3.00225919      -0.12232747      -0.06760056       0.01030877       0.05343204      -0.03608147      -0.53254604       0.40910843
H       -2.05730647       1.51454630      -0.39435582      -0.03900733       0.02964349       0.05191469      -0.21757701       0.11633721       0.04876126
