20
Properties=species:S:1:pos:R:3:momenta:R:3:forces:R:3 Coordinates=T from=T ORCA-job=T int=T E=T -1253.934929368563=T energy=-23252.615547645135 pbc="F F F"
N       -1.12180658       0.61300454      -0.68368968       0.45699886      -0.75489184       1.31322955       1.41148402      -0.23330613       0.62852790
C       -0.02506977      -0.36080407      -0.39105832       0.58949483      -0.55875112      -1.06148646      -0.52004004      -0.74007630       0.37406930
H       -0.87511870       1.13904117      -1.54353659       0.22905938       0.17894755      -0.09368079      -0.57338953      -0.64512986       0.56456757
H       -1.96710518       0.02725318      -0.76857182      -0.01703970       0.02390438      -0.29076753       0.03246722      -0.05507800      -0.12512770
C       -0.67558902      -1.71607487       0.09826329      -0.35169570      -0.69879796      -1.13653868       0.27089503      -0.68944043      -1.53359318
S       -2.47270978      -1.46346748       0.43650673       0.16933494       1.25193035      -0.00002464       1.50748822       0.47072217       0.53456571
H       -0.00992840      -2.10393443       0.86867498       0.30507928       0.00534156       0.16475237      -0.62974298       0.16230005       0.84897619
H       -0.68440381      -2.55466829      -0.64068135       0.19776543      -0.07254515      -0.02592642       0.20313931       0.94911909      -0.05000967
C        1.00215869       0.10658468       0.67525467      -0.25672293       0.69281686       0.24242951      -0.54020566      -0.19988593       1.06343150
H        0.67361469      -0.50360088      -1.22533644       0.32453672      -0.08182384       0.14991252      -0.47511968      -0.33149633      -0.57433510
O        1.71912157      -0.64993892       1.33286458      -0.88879458       0.36834547       0.46069314      -0.63742292       0.75609863      -1.22253036
N        0.96736385       1.45775764       0.78980906      -0.06238126      -0.48137736       0.62434885      -1.18865204      -0.22847497      -1.74098825
H        0.05717129       1.88478317       0.60958479      -0.01313780       0.30697151       0.21400965       0.29678059      -0.34298956      -0.25632972
C       -2.12284233      -0.02693031       1.54134237      -0.87892040       0.63105478      -0.31927934       0.01084583      -1.22804146      -1.47630971
O       -1.12425642       0.01654565       2.20831384       1.01620428      -0.11369841      -0.41110982      -0.22377872       0.21011397       0.27954113
C       -3.18382277       0.98444542       1.45488563      -0.45073162      -0.49271448      -0.44342131      -0.97423273       2.42127180      -0.85654891
H       -4.14305232       0.63781695       1.03680066       0.11245791      -0.10688884       0.20262518       0.31260782      -0.46895987       0.37555808
H        1.41443316       1.82451894       1.55681679       0.20763222       0.05201064       0.14205468       1.53845227       0.91357780       2.20317030
H       -2.84901354       1.72087030       0.64220659      -0.26791277      -0.14219987       0.09829830      -0.18316427      -0.65547085       1.48760450
H       -3.38358001       1.48508505       2.42306512      -0.42122616      -0.00763509       0.16988165       0.36158854      -0.06485405      -0.52423906
