22
Properties=species:S:1:pos:R:3:momenta:R:3:forces:R:3 energy=-30133.422541889355 pbc="F F F"
O       -4.37524254      -0.06069724       7.63040463       0.04874440      -0.64438964      -0.28637184       2.33254989       2.17630471      -0.80307470
H       -3.66612252      -0.10846308       5.93007957       0.03445719      -0.05212570      -0.14590385      -0.89112412       0.02552524       0.50385849
O       -5.60892728      -0.62918736       7.48722130       0.73652272       0.11480397      -0.73840909      -2.11426784      -0.62211422      -1.75786426
H       -5.63365096      -1.28979276       8.17873978      -0.08926179       0.04809913       0.01650241       0.05230437      -0.47898108       0.50492930
H       -4.55616372       0.92294045       7.55857132       0.11672952      -0.22134458      -0.09137808       0.05994662      -1.33323562       0.19760288
H       -5.69721597      -1.19369254       5.78674403      -0.10394118      -0.28756530      -0.18077818      -0.91573213      -1.18341183      -1.07832236
S       -3.59456459       0.00148017       4.56648017      -0.15602034       1.33364398      -0.76394847      -0.71516532      -0.64294760       0.78855470
S       -5.92775147      -1.82086561       4.47073175       0.07011274      -1.00168414       1.53203448       1.36706153       1.67560927       1.65041515
C       -1.78304893       0.06977195       4.70106854      -0.63319048       0.60732314       0.29481475      -1.70034325       1.06871712      -0.33676022
H       -1.53552771      -0.76623448       5.29021044       0.14867872       0.16495581       0.19978617       0.96382529      -1.29758990       0.53424299
H       -1.46275673       0.00475006       3.69091568      -0.12584647      -0.07599567       0.07857237       0.59297591      -0.65960205      -1.02350688
C       -7.40545887      -2.85957466       4.75762982      -0.06341184       0.50000996      -0.25733131       0.04733863       1.36312795      -0.52013856
H       -7.39615137      -3.18504929       5.76081688      -0.03360489      -0.23207466       0.06264158       0.49481612      -1.06467736       1.22248757
H       -7.37887851      -3.69623456       4.07487444       0.25342778       0.04957334       0.35130210       0.18627357      -0.25790519      -0.24898206
C       -8.69082265      -2.06050902       4.68720060      -0.24800745       0.18037625       0.34499780      -1.47550642      -2.43432713       0.20312053
H       -8.73781036      -1.55658504       5.61184773      -0.10873960      -0.36696019      -0.23700666      -0.18698388       1.38363314       1.10907567
H       -8.82589617      -1.37180358       3.86777270       0.36151975      -0.07698812      -0.00426783      -0.08146384       0.01303978      -0.49486452
H       -9.55145991      -2.83013230       4.81235356      -0.18160835       0.29532456      -0.07905435       1.07168531       1.32268679      -0.78636551
C       -1.24490003       1.36884102       5.22632934      -0.37447075      -0.17647575       0.16997098       0.53329444      -0.33648375      -0.30156529
H       -1.25415018       1.43120826       6.32220369       0.18152425      -0.03184589      -0.32192191      -0.14383344       0.27493551      -0.20334196
H       -0.20790357       1.27295925       4.87007745       0.08682147       0.04259329      -0.47795535       0.11661494       0.94959527       0.43729463
H       -1.77406786       2.19113622       4.71988233       0.07956460      -0.16925459       0.53370458       0.40573400       0.05810056       0.40320501
