22
Properties=species:S:1:pos:R:3:momenta:R:3:forces:R:3 energy=-30136.246609797683 pbc="F F F"
O       38.35085570      22.97983389       5.08883679       0.12884285       0.20909825       0.04054108      -0.16115929      -0.42419489       0.05136983
H       38.44466297      23.70951119       4.43111980      -0.00727248       0.02165985       0.15416706       0.19079440       0.64283533      -0.24370872
O      -37.50047253       0.75115500      -1.72411670       0.41785159       0.87844635      -0.75910958       0.43780629      -0.19679371      -0.12786037
H      -37.26520242       1.53027008      -1.20699278      -0.00183485       0.03852832       0.07542944      -0.25142598       0.00422148       0.00140038
H       37.90009365      22.31712418       4.55137863       0.04889081       0.49193425       0.10514434      -0.02963511      -0.21864048       0.19233887
H      -38.49368781       0.72101326      -1.74958124      -0.14421674      -0.18951679      -0.25444498      -0.18638030       0.19257221       0.12645999
S       -6.00613850      -3.27084868       5.81869709       1.28352317       0.07000215       1.04256828       1.19160756       1.10811298      -0.11902951
S       -6.10048436      -5.36256925       5.97193885      -1.05798276       0.00389251      -0.30916875       0.02293516      -0.41849946      -0.37734214
C       -7.48493678      -2.77547500       6.69029091       0.68219993       0.16921037       1.02814510      -0.32614151      -1.83639717       1.28086126
H       -7.56206895      -3.27253795       7.71169901      -0.10369602      -0.24981129       0.20629571       0.18989223       0.53876060      -1.22440076
H       -7.51811640      -1.73232939       6.82977498       0.19020425      -0.27066412       0.01853167       0.69871533       1.61330116       0.41594529
C       -5.41729982      -5.63892654       7.61444332      -0.70395196      -0.58000210       0.28599812       1.28258193      -1.00581396      -0.36279175
H       -6.15145691      -5.28170693       8.31936932       0.18356004      -0.05053143      -0.24900352      -0.12374131      -0.12424625       0.66429126
H       -4.43826244      -5.11795455       7.77721479       0.01787036       0.11323414      -0.02556479      -0.89995694      -0.10433644      -0.29545656
C       -5.12278279      -7.16252396       7.64894681      -0.33721794      -0.46892556      -0.37333756      -0.11176938      -0.86963820       1.08976984
H       -4.63139368      -7.51388527       6.75501082      -0.19247233      -0.03966208       0.11482698       0.52937472       0.40713659      -0.65381658
H       -4.42884202      -7.46753594       8.47686452      -0.05186855      -0.02051940      -0.18275921      -0.71524805       0.41145778      -0.35498157
H       -6.00196792      -7.84439260       7.67005212       0.13612699       0.19198877       0.12387375       0.07604832       0.79212099       0.42282927
C       -8.63794486      -3.08502690       5.80944325      -0.86778809      -0.34762060      -0.75553115      -2.34734726      -4.11212349       2.14650321
H       -8.79188986      -2.34214585       5.11140799       0.29356484      -0.14885523      -0.13586066      -0.03279558       1.22789574      -2.36095643
H       -8.60796331      -4.19298969       5.45796854       0.20622873       0.14598873      -0.29452216       0.04968376       2.11055279      -0.17643350
H       -9.58466310      -3.09992425       6.40529519      -0.12056158       0.03212511       0.14377971       0.51616120       0.26171619      -0.09499121
