22
Properties=species:S:1:pos:R:3:momenta:R:3:forces:R:3 energy=-30133.97566661459 pbc="F F F"
O       -6.50662689      -0.05423375       3.58139951      -0.04293003      -0.30279068       0.45455187      -0.46102521      -0.04339046       1.04962934
H       -5.76813788       0.47910291       5.36403364      -0.26947300       0.04873379       0.02618079      -0.16881731      -0.30370778      -0.49000113
O       -6.39365447      -1.45933996       3.76893362      -0.32550076      -1.30773492       0.33871917      -2.01650409      -0.92609073      -1.38793666
H       -7.18173103      -1.82257728       3.21075928       0.01496442      -0.37259850       0.00807977       1.91698623       0.81769276       1.36331022
H       -5.72724431       0.09343333       3.05536434       0.16449837       0.03989360       0.05885576       0.80560189       0.37837428      -0.55910987
H       -4.77346015      -1.79694402       4.22549454      -0.15704185      -0.05968649      -0.09538279       0.06977086       0.11938896       0.25400720
S       -5.15688578       0.26013832       6.54619882       1.35341363       0.32582948      -0.41184999       0.28500655      -0.11201673      -0.51828946
S       -3.60015448      -1.59974786       4.90274833       0.23057872       1.02637953      -0.12906552      -0.40836477       0.23827767      -0.12114468
C       -6.53272998       0.91519638       7.50592167       0.34840984       0.29466106       0.71535039      -1.52419341       2.15548015      -0.15698344
H       -6.96976298       1.91169278       7.05347692      -0.22592902       0.12597694      -0.12899012       1.18550134      -1.74254858       0.76585197
H       -7.34281424       0.20789731       7.45383895      -0.24073397      -0.00698419       0.05882418      -0.57828110      -0.37977004      -0.38140115
C       -2.72086014      -2.95685076       4.07406049      -0.76555004       0.80601851       0.16681386      -0.09917508      -0.15706329      -1.43727541
H       -3.45533595      -3.67940535       3.69577212      -0.09006344      -0.30506568      -0.05505587       0.12676038      -0.32214522       0.78350115
H       -2.02793029      -3.34451716       4.80898581      -0.28600495       0.13220577      -0.34611047      -0.06898217      -0.58679473       0.24141133
C       -1.89934128      -2.52272416       2.84805363      -0.30210099      -0.70435398       0.00064239       0.59877616       1.29166102       0.10660517
H       -1.42250060      -1.57980146       3.17423463       0.10096545      -0.19840918       0.11867955       0.41739976      -0.29389930      -0.41026282
H       -1.10093695      -3.24214566       2.53788781      -0.14730644      -0.31803949      -0.16463064      -0.69808912       0.35222575       0.36620092
H       -2.48259619      -2.22490797       1.95441544       0.11856169       0.07899558       0.27745043      -0.08173054      -0.45605212       0.48409206
C       -6.20774465       1.04261731       9.00583342       0.84540247       0.54189232      -0.57683611       0.40928665      -0.41241801      -1.69591355
H       -6.99800310       1.55517252       9.53148046      -0.02981616       0.02815766       0.02109069      -0.13756526       0.56753188       0.23279454
H       -6.22540564       0.00905744       9.33546304      -0.11604354      -0.09691504      -0.20645894       0.62374866      -0.16322346       0.68039566
H       -5.22142393       1.51835574       9.05218271      -0.17829997       0.22383345      -0.13085867      -0.19611073      -0.02151140       0.83051860
