20
Properties=species:S:1:pos:R:3:momenta:R:3:forces:R:3 Coordinates=T from=T ORCA-job=T int=T E=T -1253.934929368563=T energy=-23253.466161430093 pbc="F F F"
N       -2.35714760       0.58607842       0.50013798       0.43033203      -0.00808572       0.18567395       1.07178144      -0.68232163       0.32549095
C       -2.05707262      -0.79712322       1.01941049      -0.94962206      -0.34526570      -1.05711726      -1.55442870       0.70096695      -0.22707552
H       -3.26160814       0.94665122       0.84295492       0.02008686       0.12377831       0.14715156       0.80222768      -0.30576426       0.16551645
H       -1.57921213       1.21554203       0.79775914      -0.12644986       0.22945477       0.00785366      -1.12186682      -0.72938158      -0.30708886
C       -0.53894774      -1.14865870       1.06343553      -0.69568673       0.02035711      -1.10303730      -0.81094182      -0.93165565       1.00264740
S        0.32794556       0.14901251       1.96951473      -1.19438337      -0.63847771      -0.16692057       1.24072992       0.48193856       0.52496291
H       -0.04041801      -1.36779033       0.10609255      -0.07773631      -0.20949803       0.06268632      -0.46727848       0.38342345       0.04338500
H       -0.51709969      -2.12398437       1.67781431      -0.11554547       0.11108034       0.34371142       0.32385898       1.53497434      -0.76371837
C       -2.76374034      -1.90797498       0.20559197       0.37547021      -0.54581480       0.97333491      -0.38284591      -2.24696970       0.59383821
H       -2.58302549      -0.90347187       2.01777200       0.13813288       0.07616233      -0.01660353       1.15753746      -0.11823240      -0.52852523
O       -2.92779267      -3.05808038       0.63916856       0.41862349      -0.24131232       0.14854311       0.69688183       1.59652030       0.06575832
N       -3.18177744      -1.56792102      -1.02779304      -0.63341809       0.70826612      -0.33635740      -0.33033690       1.36558557      -0.38821065
H       -3.43325319      -0.58431043      -1.07063274      -0.13783600      -0.11180517      -0.07464212       0.34650314       0.07347982      -0.50470197
C        0.92685432       1.34717559       0.71630350       0.45880870       0.21073965       0.15941373      -0.77077509      -0.70375011      -0.01876125
O        0.22217353       1.53554257      -0.24925797       1.68487917       0.31624991       0.59252891       0.92141128       0.36602294      -0.15077686
C        2.23757428       2.10955364       0.98631567       1.01746641       0.41518917      -0.63552075       0.74314141      -0.38216549      -0.12714243
H        2.78376403       1.78860472       1.91237487       0.10649607       0.00039646       0.11636723      -0.98295379       0.36446559      -0.49382287
H       -3.80553165      -2.20230337      -1.50240952       0.03723388       0.01330782       0.27233840       0.03351710      -0.22040725       0.15946008
H        1.97219114       3.19473834       0.99876620      -0.19677100       0.17779850       0.18692610       0.34596574      -0.74759573       0.10914290
H        3.00893716       1.94080779       0.16957849      -0.56008101      -0.30252037       0.19366890      -1.26212883       0.20086637       0.51962137
