22
Properties=species:S:1:pos:R:3:momenta:R:3:forces:R:3 energy=-30134.1981827402 pbc="F F F"
O       -7.18955879      -1.26232823       6.42553272       0.39220130      -0.45998578      -0.00409138       0.15532823      -0.75700002       0.49232689
H       -5.39012074      -2.05667315       6.61078486      -0.02521342       0.26321296      -0.01927288       0.09983875       0.35949506      -0.14350357
O       -7.31321545      -0.54631827       5.22330154      -0.92904483       0.43380946       0.53691720      -0.15273294       1.90392706       1.20702845
H       -7.43267096      -1.24773207       4.62398448       0.21032883       0.00247469      -0.18674515      -0.29475969      -1.67029786      -1.56880045
H       -7.63461371      -0.69729499       7.06890216       0.41462939      -0.04199019      -0.02417212      -0.08341095       0.29997557       0.00720812
H       -5.71927159       0.26860683       4.95223817      -0.04999389       0.16834850       0.11360174       0.64583951       0.07744730      -0.05839491
S       -4.10601084      -1.89640938       6.21919343       0.88928916       0.10333644      -1.06501456       0.24167643      -0.46115177       0.22175218
S       -4.45533101       0.60281332       4.57837497       0.00106362       0.50480937       0.00265102      -0.94356278       0.49141090      -0.27857382
C       -3.76130113      -3.67148175       6.09574904      -0.39654392      -0.42393480       0.48181337      -0.74074268      -1.54784191      -0.21073200
H       -4.70481943      -4.20085740       6.30835789      -0.01009054       0.01860435       0.14866170      -0.08534646       0.29759264      -0.48846051
H       -3.48523604      -3.95662376       5.06523745       0.03603007      -0.10465430      -0.00163126       0.03159834       0.37454993       0.26227325
C       -5.09232380       1.74382394       3.25247424      -0.06600357      -0.09334051      -0.28204041       1.57306087      -2.30253291      -0.66675323
H       -6.11208200       1.93163571       3.43955117       0.05922274      -0.27748434       0.01221836      -1.39219415       0.60570109       0.46181732
H       -5.07583552       1.13571013       2.32425531       0.16041075      -0.03822563      -0.07765478       0.10114942       0.42474997       0.30629191
C       -4.21891300       2.94421098       3.16733908       0.28572200       0.55119492       0.04683633       1.75358808       1.54318643       0.29047960
H       -3.07703510       2.65028831       3.19433474      -0.01638453       0.10560293      -0.21961784      -2.27708435       0.68396592      -0.44053781
H       -4.48293508       3.58868663       2.27249928      -0.12468296      -0.15041394       0.14313437       0.54451054      -0.75357521       0.83345997
H       -4.38607577       3.57482352       4.07949237      -0.20855414      -0.03121164       0.03349102       0.23346509      -0.36073115      -0.66848260
C       -2.82670994      -4.27587534       7.13254081      -0.37559097      -0.40764806       0.48688697       1.10988426       1.38773441       0.63772810
H       -2.65394436      -5.36368867       6.99339386      -0.03696544      -0.21034399       0.09617910      -0.38388777       0.56861347       0.20475817
H       -1.83778417      -3.76288376       7.12790504      -0.09753691      -0.19612848      -0.07513747      -0.35466009      -0.41370165      -0.17574732
H       -3.25166164      -3.99706276       8.11969244      -0.11229284       0.28396773      -0.14701303       0.21844171      -0.75151730      -0.22513786
