22
Properties=species:S:1:pos:R:3:momenta:R:3:forces:R:3 energy=-30133.601663329082 pbc="F F F"
O       -4.84970473      -3.17195790       4.61676774      -1.21384748       0.20673338      -0.46784016       0.11212446      -1.28962038      -0.56098856
H       -4.77539606      -1.65948776       4.05639560       0.19788316      -0.09869401      -0.02948464      -0.08572034       2.26947496      -0.79294448
O       -5.51645846      -2.89441452       5.80592282      -0.25844663      -0.46648340      -0.79599273      -1.51029257      -0.66946521       1.01811402
H       -6.47254475      -3.06887062       5.61154939       0.19776836       0.18832133       0.21676955       1.00756025       0.24201110      -0.05297166
H       -4.13827175      -3.76375778       4.90800292      -0.14920223       0.15687924      -0.02159000       0.14433800      -0.01360406      -0.04663930
H       -4.70722392      -1.52309789       6.61404577      -0.02116691       0.13247263      -0.17919151      -0.12156439       0.12480166       0.00231568
S       -5.01022034      -0.26182372       4.01510257       0.86612671       0.32342339       0.93382359       0.06957712      -0.79534772      -1.00846962
S       -4.44881582      -0.20765476       6.66672419       0.22554125       0.17076466      -0.30185782       0.59578436       0.15304327       1.55070738
C       -4.71374764       0.07333197       2.24781276      -0.83873760       0.28728618      -0.08745473      -0.84609121      -1.01045978      -0.83601820
H       -4.14540104       0.98986020       2.19872298       0.05283780      -0.11192754       0.16044660       0.10605156       0.56494433      -0.08523934
H       -4.06571043      -0.70115823       1.79755561      -0.15702395       0.23811410      -0.04099147      -0.19656113       0.11211158       0.38771537
C       -3.56979700      -0.27566584       8.27044751       0.31031236      -0.20088116       0.99150282       1.02350855      -0.48572385       1.11194348
H       -2.78005903       0.51937464       8.24364877      -0.10543362      -0.15096380      -0.14555655      -0.30678222      -0.84037185      -0.26916558
H       -3.04573552      -1.33403558       8.47071509       0.25138122       0.20510673      -0.09095422      -1.11381078       2.38246846      -0.63349414
C       -4.46686493       0.07853339       9.48359805      -0.44396217      -0.13160175       0.42961487      -2.09375405      -0.82282043      -1.58807516
H       -5.06197531       1.07344538       9.41717890       0.12159134      -0.15351828      -0.41203065       1.07360041      -1.84800506      -0.04382753
H       -5.12571952      -0.81762394       9.69077908       0.13371457       0.10038960      -0.31076285      -0.07513136       1.21049643      -0.49776998
H       -3.85553596       0.04102763      10.32640731       0.23434390       0.01338859       0.28632660       1.35560668       0.63212961       1.76907754
C       -6.04113977       0.14600180       1.41858088       0.68129429      -0.73493011      -0.67042401       1.45380163      -0.25494802      -0.17256719
H       -6.63965105       0.99995450       1.72006711       0.19940863      -0.07430940       0.38066079      -0.08504272       0.32743719      -0.15231973
H       -5.76023788       0.17854702       0.32580169      -0.19171552       0.03195486       0.07248410      -0.53131223       0.15557204       1.00060678
H       -6.64064514      -0.74649496       1.60808764      -0.09266760       0.06847449       0.08250313       0.02410930      -0.14412440      -0.09998961
