20
Properties=species:S:1:pos:R:3:momenta:R:3:forces:R:3 Coordinates=T from=T ORCA-job=T int=T E=T -1253.934929368563=T energy=-23251.227987452618 pbc="F F F"
N        0.11422114       0.18782300       0.18026810      -0.47720430       0.03636825       1.30766114      -0.54191112       1.40797858      -0.11060055
C       -0.46302079       0.70731149       1.45338082      -0.08171650      -1.47066279       0.93854554       1.89004183      -1.89526606      -0.77989674
H        0.14312169       0.99438408      -0.51142279      -0.25490202       0.18112920       0.19174364      -0.12610954      -1.27247691       0.30381054
H        0.97450901      -0.32707657       0.48622412       0.09788148      -0.27344165      -0.18692086       0.15413785      -0.09391949       0.11833257
C       -0.63517206      -0.59644629       2.26824332      -0.23644955      -0.02182285       0.43993200      -0.93672258       0.28143516      -0.84697837
S       -0.10794229      -2.03990645       1.31374697       1.20160209      -0.86687815      -0.00943828       0.96605879       0.76344464      -0.14553392
H       -1.70328889      -0.72281315       2.35930269       0.16871471       0.09206158      -0.04879241      -0.42315280      -0.17460948       1.15170896
H       -0.06787968      -0.48258521       3.15515277       0.30803030      -0.34331154      -0.12214674       0.09768349      -0.33504865       1.41519785
C       -1.66965090       1.53371613       1.16977782      -0.05225691       0.64856512      -1.29082977      -0.95015156       0.04401362       0.39822629
H        0.34379309       1.25020381       1.90263284       0.03436177       0.00901171      -0.00521044       0.07701185       0.85350370       0.45053378
O       -1.85484033       2.05863540       0.10077270      -0.00312454      -0.37408472       0.10704921       0.31969312       0.73278385      -1.40330839
N       -2.62064080       1.56137005       2.13425286      -0.34501542       1.14025361      -0.65992983      -0.23954737       0.16815925       1.01646054
H       -2.34620749       1.33654058       3.08469041       0.10441389      -0.05632510       0.19727023      -0.28363216       0.12336060      -0.18478292
C       -0.47190614      -1.04315651      -0.28760942      -0.76896996       0.56544526       0.18452655      -2.07679718      -0.47174828      -1.04736221
O        0.08700275      -1.41873843      -1.33064212      -0.74557158       0.05197854      -1.28164707       0.52558494      -0.50813234      -0.63593483
C       -2.10790457      -1.10631580      -0.42749613       1.12015422       0.69407074       0.64669936       1.40609407       0.46847957      -0.81446075
H       -2.36665959      -2.17374354      -0.74332412      -0.26820019      -0.19597619      -0.28075134       0.43708095       1.59025490       0.67922521
H       -3.38036884       2.22771461       1.99908748       0.22308558      -0.20088691       0.11494533       0.36913121      -0.32736012       0.12587214
H       -2.28216590      -0.40140265      -1.34013887       0.13107844       0.01860385      -0.06720696      -0.21589574      -1.09920359       1.98075330
H       -2.50723742      -0.81072301       0.59040463      -0.15591162       0.36590230      -0.17549990      -0.44859791      -0.25564864      -1.67126286
