23
Properties=species:S:1:pos:R:3:momenta:R:3:forces:R:3 energy=-34120.56834923753 pbc="F F F"
N       -3.10279886      -0.77352622       3.60046508      -0.14682515      -0.33047648       0.05814117      -0.83931452       1.25575268       1.08918202
C       -2.56582067      -1.04521541       2.31368885      -0.05616541      -0.94180742       0.19794683       0.80955189      -0.77080137      -0.58971310
H       -2.88253476      -1.48961268       4.30512422       0.47197290      -0.04924330       0.07762196      -0.51874459       0.43289304      -0.78766638
H       -4.11520150      -0.51376716       3.59960475       0.18942588      -0.35921093       0.02273625       1.31510580      -0.75585127       0.02090251
C       -2.07904018       0.24176011       1.53388234       0.14595616       0.75980249       0.40469666      -0.69141167       0.08553509       0.91130346
S       -0.47442044       1.01998823       1.96121897       0.34823161      -0.70656099       0.79235834       0.12237312      -0.68857424       0.21850319
H       -2.81005042       1.01971693       1.81963011      -0.20828173      -0.02319496       0.06420881       0.12986702      -0.11850260      -0.63579845
H       -1.94769298       0.11145942       0.46972069      -0.18379445       0.12063108      -0.05862454      -0.84406412      -0.18631318      -0.29840985
H        0.32720241       0.17338225       1.26778606      -0.11552831       0.08157008      -0.04459897      -0.18130651       0.07730041       0.27409636
C       -3.56289258      -2.02831589       1.53197275      -1.86326707       0.41776694       0.02278789      -0.67687136       0.93309695       0.68178982
H       -1.63601612      -1.58568797       2.55416854       0.04611989      -0.02202173       0.48114990      -0.05487299      -0.39268923      -0.47658917
O       -4.59340689      -2.38812123       2.13567914       0.80557704      -0.13445252      -1.10742230       2.01496124       0.13627857      -1.73042941
N       -3.20213667      -2.37911009       0.25014001       0.17532568      -0.14917799      -0.28761725      -1.00399935      -1.13889503      -0.72515363
H       -2.67351295      -1.85511258      -0.45670886       0.10193778      -0.07817855      -0.08891781       0.31866410       0.23472357       1.15894032
C        0.10447230      -0.72836660      -1.08563703      -0.55264965       0.92040103      -0.46808492      -0.10327532       0.30103265       0.41410379
O       -1.07204083      -0.91464493      -1.22719362       0.57711218       0.19186012      -0.01931429      -1.27195513      -0.82391733      -0.18052363
S        1.20351674      -1.97004692      -0.39885345      -0.73941716       0.16665494      -0.15758888       2.01172462       2.19212404      -0.40129362
H        0.35000933      -2.87532056      -0.14647413       0.03122657      -0.29250268      -0.14849024      -1.91195476      -1.52618015       0.33035269
C        0.65721108       0.60866182      -1.47743194       0.83740385       0.01511209       0.32914886       0.27795243      -0.77147508       0.10512400
H        1.67026277       0.64554741      -1.12866625      -0.32299019       0.34573315      -0.14323050       0.96982282       0.25117740      -0.65004003
H       -3.74905262      -3.11370615      -0.23666843       0.26299981       0.01779621      -0.01178984       0.14523038       0.71997386       0.99549830
H        0.14085902       1.40918157      -0.98344040       0.18337797      -0.04312381       0.06441041      -0.71325624       0.30644456       0.42900777
H        0.43557248       0.70018403      -2.54235310       0.01225105       0.09262292       0.02047192       0.69577277       0.24686611      -0.15318699
