22
Properties=species:S:1:pos:R:3:momenta:R:3:forces:R:3 energy=-30133.12630107765 pbc="F F F"
O       -4.29576071      -2.17810298       3.30028276       0.22379138      -0.09560758      -0.28899456       1.41224269       0.71312733       1.58291337
H       -4.01403650      -2.28876453       5.01208553       0.01534843       0.05604822       0.27839967      -0.02183647       0.06268743      -0.59860665
O       -4.84534915      -0.88789476       3.13283139      -0.17131515       1.33574949      -0.32267095      -0.49946537       1.00637281      -0.33762347
H       -4.10873793      -0.22988771       3.16055572      -0.05534301      -0.01641931       0.15439647       0.14453045      -0.87541258      -0.03220788
H       -4.78610058      -2.66148851       2.65529083       0.20607028       0.16368379      -0.02299569      -0.77017903      -0.85888565      -0.90128100
H       -5.63872220      -0.31603010       4.31844640      -0.15967927      -0.13319038       0.01212075      -0.37171368      -0.22141188       1.34146368
S       -3.94808839      -1.84465750       6.29918179       0.51871950      -1.24972289      -0.99408980      -1.84245220       0.18657883      -0.64468462
S       -6.09221942      -0.10510884       5.67125066      -0.44526107       2.04048199       0.92804425       0.33525667       0.00465707      -1.00239676
C       -2.27274632      -2.29467408       6.67735875       0.82921798       0.60739831       0.02793480       0.38093579       2.64568138      -0.18530494
H       -2.30766149      -2.41800422       7.74726523      -0.04926476       0.12500395       0.04191032       0.53859246      -0.54267663       0.44503266
H       -1.82010882      -3.07809952       6.13537394       0.21423471      -0.09116641       0.03209884      -0.16321078      -1.76702356      -0.36579895
C       -6.93503745       1.46176352       5.14357984      -0.14333971      -0.88096774       0.16213880      -0.56717622      -0.85963976       1.25525212
H       -6.54225203       1.60403503       4.18609631       0.11795105       0.05348782       0.30093163       0.24206631       0.45990199      -1.93821561
H       -6.53247553       2.26523474       5.72645879       0.22266736      -0.48058643       0.07810980       0.35062999       0.52590775       0.67380834
C       -8.46915371       1.50626434       5.21024300      -0.65569689      -0.79754371       0.56663610       2.22265768       1.17446995      -1.09402311
H       -8.75065368       1.27466833       6.19850300      -0.15250506      -0.09155946      -0.05628650      -0.82447511       0.74051929       1.58990729
H       -8.75074403       2.45957714       4.70185160      -0.17426651      -0.01212047      -0.12472943      -0.34594879      -0.40412822       1.14048076
H       -8.90464303       0.74254038       4.66091095       0.02854097       0.04002169      -0.18513733      -0.74774903      -1.78667474      -1.58018148
C       -1.37085121      -1.09922527       6.31418154      -0.10614321      -0.51170361      -0.15615404       0.30148619       0.14413106       2.10309649
H       -0.40096804      -1.34242995       6.73534416      -0.04834366      -0.00294901      -0.27598857       0.68020415      -0.03523156      -0.27398223
H       -1.28344106      -0.90563976       5.27123910      -0.38843311       0.04460901       0.04359025       0.02172915      -0.06883372      -1.07703447
H       -1.61934363      -0.14942674       6.81177245       0.17305114      -0.10294775      -0.19926410      -0.47612447      -0.24411729      -0.10061335
