22
Properties=species:S:1:pos:R:3:momenta:R:3:forces:R:3 energy=-30133.730153489072 pbc="F F F"
O       -3.49129174      -0.29497054       7.30324818       0.55937997       1.23760936       0.42418905       0.90698573      -0.81607359       0.62507015
H       -4.36937231      -1.44744736       6.24896121       0.28633699       0.13592704      -0.08761321      -0.44876799      -0.33382515      -0.01638791
O       -3.86688866       0.85494438       6.62622745       1.37536718      -1.66095582      -0.40725270      -1.31852255       1.29032740      -0.87332178
H       -4.68606522       1.08618248       7.11014585      -0.03479876      -0.11772889      -0.14306054       0.23297915       0.09018475      -0.40450144
H       -2.65065216       0.02612219       7.66751289      -0.25061574      -0.20057206       0.06770992       0.09337099      -0.60317791       0.17759243
H       -4.58133195       0.29590496       4.84328909       0.09701236      -0.00575864       0.00154502       0.03788498       0.37461260       0.18097196
S       -5.46241438      -2.07815956       5.70764821      -1.07056041       0.82289653       0.74725205       0.99832050       0.77610730      -0.57368727
S       -5.60516781       0.13287523       3.98898794      -0.47810050      -0.25671069       0.40569461      -0.61418030      -0.80726119       0.65724123
C       -5.48204067      -3.50001431       6.78844297       0.60756670      -0.56188463       0.57136550       0.63493186      -0.40020975      -0.30306479
H       -5.60265491      -3.10230853       7.77020193       0.08461124       0.06720409      -0.04032651       0.08310755      -0.05163294       1.11127436
H       -6.40861620      -3.90182677       6.49380947      -0.15621546      -0.08662103       0.20182233      -1.53999579      -1.01194108       0.04852837
C       -5.11551146       1.28204604       2.71265988      -0.60528955       0.67883674      -0.84679573       1.24953997      -1.71080303      -1.80790043
H       -5.94069005       1.88853145       2.48886508      -0.14245070      -0.23812733      -0.03186514      -1.43605638       1.21358156      -0.11245342
H       -5.04066238       0.65314723       1.76210368      -0.09850155      -0.16109448       0.20270694       0.71491748       0.83886689       1.08887029
C       -3.94423422       2.10749567       3.20783764       0.83540639       0.62862496      -0.83023232       0.19668140       0.59007555       0.89242321
H       -3.24430238       1.49190585       3.81254803      -0.05464551      -0.02894662       0.35650119      -0.39205226       0.40442362      -0.10930631
H       -3.27617465       2.63179987       2.50935956      -0.11569969      -0.16878896      -0.25790617      -0.67231417      -0.10614210      -0.38779777
H       -4.46293140       2.86273691       3.86112659      -0.18389781      -0.00555318      -0.10051196       1.09435511      -0.40246391      -0.21534440
C       -4.40045426      -4.58118552       6.65519673      -0.51468400       0.29069779      -0.48644748       0.13815892       0.02203099      -0.44924313
H       -4.49905071      -5.29423703       7.51783339      -0.13793842      -0.00844030       0.14192268      -0.03940928       0.28773576      -0.97365493
H       -4.46268964      -5.10130671       5.62870717       0.06493315      -0.22085646      -0.00437507       0.16055578       0.68067789       1.69886422
H       -3.41346974      -4.10191785       6.77548161      -0.06721579      -0.13975712       0.11567735      -0.08049057      -0.32509369      -0.25417259
