20
Properties=species:S:1:pos:R:3:momenta:R:3:forces:R:3 Coordinates=T from=T ORCA-job=T int=T E=T -1253.934929368563=T energy=-23251.602557018326 pbc="F F F"
N        0.18834384       0.06165676       1.03413617      -0.87128035       0.52733670      -0.47745171      -1.04724983      -4.07359361       1.08590450
C       -1.07425823       0.44872971       1.73195560       0.42264409       1.05183895      -0.35911357      -1.57267809       1.16397369      -3.18831587
H        0.78746693       0.73843227       0.67990299      -0.16853737       0.08127344       0.05090143       1.48028088       2.03581834      -0.66974378
H        0.55691101      -0.63622721       1.80169091      -0.28502246      -0.03146916      -0.30486875      -0.26984877       0.07485052      -0.85654814
C       -1.97928922      -0.79756740       1.70162010       0.12863829      -0.06691580       0.14467659       0.16947472      -1.74414611       0.02027603
S       -0.80070996      -2.22277007       1.33917551      -2.03235387       0.79395317       1.38820090      -0.65373790       1.44972961       0.99668456
H       -2.68610096      -0.90892907       0.82850143       0.16923974       0.04667242      -0.25571623       0.62206411       0.87094355       0.85047007
H       -2.55157133      -0.95945450       2.65154805       0.24298067      -0.23688583       0.09192208       0.55775666       0.12705119      -0.79997700
C       -1.75997028       1.69424692       0.94619737       0.31359380      -1.50984257       0.19080415       1.35773027      -0.46407008       2.15857863
H       -0.83381748       0.83173405       2.70265975       0.35125171       0.17592647       0.05550799      -0.14646471      -0.05251852       0.42519736
O       -2.12623771       2.58804492       1.67856446       0.35074520      -0.22098365       0.06771926      -0.71262294       0.68019396       0.09638450
N       -1.68660445       1.75499341      -0.39034196       0.17159918       0.49721144       0.45085462      -0.11725146      -0.01997697      -0.22162879
H       -1.55616564       0.89359654      -0.89202972       0.19067543       0.27010167      -0.11912417       0.27306569      -0.42188603      -0.50210541
C       -0.09172383      -1.04493866       0.02450033      -0.02763678      -0.10464711       0.54573668      -0.66160609       0.01310479      -0.66085877
O       -0.89111581      -0.74189980      -0.92610486       0.21983717      -0.88362978       0.14732305      -0.14877772      -0.04742503       0.50746274
C        1.15256627      -1.74859697      -0.56043018       0.53362798      -0.09859354      -1.15012747       2.58843112       2.35008025       1.72211218
H        0.93123152      -2.56244475      -1.19295300      -0.02482291       0.19791913      -0.39223146      -0.74322081      -0.85572040      -0.80043894
H       -1.98356253       2.59932290      -0.87001423       0.02648385       0.26699768       0.04100568      -0.08656499      -0.27058840       0.36853486
H        1.84089242      -2.11500947       0.27618626       0.15070983      -0.31989314      -0.26899142      -0.64187372       0.57312822      -1.14495826
H        1.64394361      -0.90613101      -1.15865083       0.13762579      -0.43636936       0.15297285      -0.24690533      -1.38894844       0.61296988
