22
Properties=species:S:1:pos:R:3:momenta:R:3:forces:R:3 energy=-30131.220190358876 pbc="F F F"
O       -5.26969581       1.42024925       6.19609142      -1.15747213       0.07670565      -0.53074487      -1.34343086       0.02598352       0.09982421
H       -4.96919243       0.10465227       6.41580733       0.03980366      -0.02033865      -0.22103653       0.55106602      -0.56261511       0.60204692
O       -5.88252779       1.46425015       4.89757514       1.15518722      -0.33850226       0.15918126       0.31298541      -0.69139867       0.21750516
H       -6.84672567       1.50915303       5.10790713       0.10188792      -0.16710777       0.20724043       0.39944208       0.08779764       0.03687415
H       -4.34605731       1.75252351       6.14304316      -0.03798882       0.29701501      -0.12045773       0.41465980       0.26890171      -0.63543093
H       -5.58081138       0.02397359       4.41937162       0.02786024       0.04835118       0.06859142       0.02738435       0.83022313       0.11181771
S       -4.24021719      -1.11770098       6.45045442      -1.05756922       0.69615528       0.88310304      -0.24495956      -0.01324926      -0.95361994
S       -4.89361236      -1.11420396       4.08287803      -0.22409646      -1.71611617       0.29110957       0.72589601      -0.01448683       1.02518604
C       -3.76298407      -1.05671014       8.24522227       0.19303683      -0.79560380       0.09020374      -1.92154300       0.50610650      -0.42033300
H       -2.71039929      -0.79482539       8.26005525       0.01475673      -0.02597217      -0.04405614       0.20134102      -0.08769514       0.36496285
H       -4.37870631      -0.22623447       8.66467978       0.28471757      -0.15060369      -0.08421387       0.65658242      -0.47976726      -0.05261581
C       -5.49638427      -1.03211623       2.38162826       0.18686570       1.23772250       1.20931286      -3.17571831      -0.58550984      -0.80032742
H       -5.36112912      -0.06956549       1.86297236      -0.06615667      -0.05975018      -0.26768060       0.77641946      -0.18920733       0.28221384
H       -6.62969188      -1.04737176       2.49562999      -0.03636472      -0.00650170       0.22578896       1.09103858      -0.10603307      -0.12078859
C       -5.11134966      -2.24046302       1.51082593      -0.40327195       0.73264258      -0.24789368       2.08176565       1.95095062       0.07580815
H       -4.00289127      -2.08650129       1.26499588       0.02496073       0.05275767       0.17235948      -1.37497687      -0.95926279       0.18231422
H       -5.36503683      -3.19530600       1.91099567       0.09855722      -0.08930373      -0.08970780       0.34914434      -0.79520535       1.02211487
H       -5.67770022      -2.23753807       0.60730188      -0.10174738       0.21675910      -0.39338660      -0.36687636       0.52994788      -1.11926341
C       -4.13298261      -2.39206987       8.90334149       0.77993744       0.01461389      -1.70294485       2.58492398      -1.06676579      -0.96397418
H       -5.09211769      -2.82180497       8.62687402       0.29315755       0.16777739       0.09157484      -0.46031252       0.50492346       0.14967026
H       -3.37977412      -3.18195329       8.49757814      -0.01208929      -0.15762341      -0.08558432      -1.07106805       1.18116891       0.95559794
H       -3.99738808      -2.28755895       9.98670230      -0.10397200      -0.01307744       0.38924122      -0.21376312      -0.33480674      -0.05958305
