22
Properties=species:S:1:pos:R:3:momenta:R:3:forces:R:3 energy=-30133.799090266482 pbc="F F F"
O       -2.55189497      -1.08294161       5.51476045      -0.99163757      -0.33007673      -1.03396276      -0.55620343      -3.42207355       1.72254894
H       -4.12935285      -1.54687863       6.25037493       0.12517087      -0.15297337      -0.00657513      -0.89600283      -0.27938783       0.27269675
O       -2.42345331       0.00455643       4.71715172       0.88953689       0.48645524      -1.15849720      -0.26877743       2.51623562      -1.77008091
H       -2.19785117       0.71774063       5.33897357       0.46277063      -0.17742832       0.27288980       0.36552298      -0.25494468       0.09136039
H       -2.45735390      -1.86613240       4.90803388       0.14622626      -0.02483133       0.39132073       0.06882947       1.17864919       0.39867303
H       -4.15402783       0.61583128       5.12575198       0.16580034       0.31919121       0.08945386      -1.06806123      -0.03457783      -0.93820371
S       -5.51675879      -1.69235569       6.46021134      -1.00296768       0.15608999      -0.06555310       0.88912069       1.35191158      -1.57375064
S       -5.51170595       0.62188318       4.76164290       1.17316469       0.14227464       0.34966456       0.50540543      -0.89223138       1.53393449
C       -5.54895823      -2.93386064       7.71571286       0.26393634       0.59554649       0.70204608      -1.17627168      -1.42485046      -0.23087224
H       -4.59502141      -2.98566509       8.16523351      -0.24919658      -0.02472198       0.09589040       1.16830444      -0.02538497       0.83542979
H       -6.28922405      -2.58987777       8.44088407       0.19824921      -0.22978991       0.05080667       0.16933361      -0.02382587       0.30537844
C       -5.41053489       1.72141047       3.37379059       0.04149276      -0.51433573      -0.93733197       1.55960619       0.42416060      -1.51504588
H       -4.72184434       2.56763777       3.64576350       0.14877147       0.04286786       0.63739351      -0.64151609      -0.59844464      -0.41587412
H       -6.37483076       2.14404138       3.08295118      -0.19213799      -0.19167897       0.05166200      -0.21731627       0.03622857       0.52977818
C       -4.88939501       0.95461937       2.12599219      -0.37703943      -0.50726813       0.43866689       2.02990866       0.84572858       0.61211455
H       -5.54906490       0.26262533       1.69963663      -0.21089970       0.32153537      -0.21239338      -1.45311058      -1.63352489       0.13382512
H       -4.77801361       1.60625731       1.27435319      -0.25941978       0.01921775      -0.18341777       0.44571018       0.95011306      -0.23056035
H       -3.89032466       0.44519410       2.27677140      -0.30825743       0.03789209       0.21753639      -1.08911419       0.56250447       0.06365937
C       -5.97102430      -4.36765576       7.23844150      -0.02238257      -0.03279780      -0.20330059      -0.94949234       2.84840822      -1.27097738
H       -5.77037651      -4.98832702       8.05716052       0.10137508       0.06397057       0.04591874      -0.00792538      -1.51160192       1.16359830
H       -7.05770254      -4.32166742       6.95028842      -0.09631084       0.13158240       0.41039416       0.95677763      -0.41279411       0.36875021
H       -5.39639771      -4.65269749       6.36074693      -0.00624447      -0.13072147       0.04738844       0.16527155      -0.20029739      -0.08638246
