23
Properties=species:S:1:pos:R:3:momenta:R:3:forces:R:3 energy=-34119.50003536152 pbc="F F F"
N       -2.43217075      -0.81317250       4.25381436      -0.08160788      -0.35330692      -0.47293580      -0.28837582       1.28036344       0.61008406
C       -1.98688468      -1.01761495       2.89533904      -0.55374963      -0.55639530      -0.26603504       1.21402156      -0.07275684       1.77480042
H       -2.68733936      -1.66221817       4.70359104      -0.01462268       0.09415439      -0.31332452      -0.42205918      -0.71253753       0.33394876
H       -3.07406635      -0.03126192       4.50620994       0.08368954       0.25426627       0.11106670       0.77075475      -1.06222653      -0.93719614
C       -3.01967714      -1.35333284       1.88675395      -0.51948613       0.62042065       0.05052902      -1.81166363       1.56189382       0.31727952
S       -2.33059416      -1.19155066       0.23565940       0.58772691       0.08758971       0.18785300       0.06388862      -0.58437077      -0.40795046
H       -3.82330742      -0.58528806       2.06940468      -0.11930973      -0.09601754      -0.12427773       0.27325118      -0.79913032      -0.60065228
H       -3.42616026      -2.32301178       2.15410056       0.09798229       0.03761890       0.11176571      -0.16949835      -0.49210358      -0.52790105
H       -2.45637281       0.13751495       0.09893794      -0.25335164       0.08750202       0.06120359      -0.14320285      -0.20493231       0.28464994
C       -0.97423538      -2.19098133       2.97355911       0.35923115      -0.64574120      -0.34081162      -0.23281682      -1.62109756      -0.73866773
H       -1.46849956      -0.09562323       2.59488943      -0.19449891      -0.05085856      -0.25846171       0.08208573      -0.10494530      -0.05624032
O       -1.23622676      -3.37170025       3.27979824      -0.60205009       0.17866904       0.11722648      -0.15337431       2.39757013       0.12289070
N        0.24526098      -1.84182774       2.51041022       0.18005470       0.10023048       0.45844054      -0.40921199       1.55367494      -0.27167648
H        0.30446982      -0.99610410       1.90847017       0.00221467       0.17274705      -0.09006417       0.46958479      -1.16327178       0.45496979
C       -0.31068878      -0.19936491      -1.29717384       0.63073544       0.23434480      -0.20575679      -0.26767803       1.94731669       0.70555181
O        0.52720014      -0.27370468      -0.44956295       0.34847027       0.48964490      -1.02812739       0.12878925      -0.75627428       0.36339265
S       -1.47531274       1.27082458      -1.26283626       0.85920080      -0.77229574       1.42661264       0.94259961       0.29180650      -1.55447158
H       -0.94357143       1.72019477      -2.48502566      -0.10921942       0.17222238       0.06825905      -0.62297714      -0.18371351       1.40286887
C       -0.30951477      -0.83025781      -2.63657858      -0.71969578      -0.30618837       0.86836336       1.08145201      -1.40123105      -0.31839651
H        0.63350979      -0.46974677      -3.11296754      -0.27001074       0.35769428      -0.28765883      -0.71403575      -0.17530236       0.05970508
H        0.87431906      -2.60843940       2.41675545      -0.08549779      -0.05694803      -0.35926692       0.72677213      -0.30108663      -0.36089268
H       -1.18731622      -0.47349786      -3.14274438       0.16516708      -0.08770229       0.10365976      -0.34552822      -0.23435111      -0.78572983
H       -0.25856301      -1.94663755      -2.60256728       0.20862772       0.03834939       0.18173939      -0.17277761       0.83670539       0.12963387
