23
Properties=species:S:1:pos:R:3:momenta:R:3:forces:R:3 energy=-34120.17144342162 pbc="F F F"
N       -3.23602447       0.93805066       3.05756491      -0.87098546       0.56023610      -0.63041827       0.45859078      -0.26562336       0.24933538
C       -3.18343252       0.18690293       1.84223993       0.80189109      -0.26531756      -0.05950225      -0.28030717      -1.19604015      -1.15172684
H       -2.33466683       1.39351138       3.20085317      -0.27163019       0.15402404       0.01746322      -0.20630433       0.19425891      -0.03120524
H       -3.92925792       1.64962024       2.89649062      -0.19315815      -0.07700071       0.00068851      -0.05873834       0.60473895       0.29029089
C       -2.24551392      -1.05462106       1.91673940      -0.31421918       0.01331821       0.76386331       0.41513336       0.39910021       2.02717066
S       -0.45709822      -0.51537547       1.75757915       0.53542518       1.31386691      -0.91593935      -1.20009701       0.48344548       0.32159238
H       -2.42942195      -1.76014138       1.12178965       0.43651914       0.16931251      -0.08587930      -0.18809465      -0.20612757      -0.24325380
H       -2.35480565      -1.57409224       2.94070267      -0.01543419      -0.37643169       0.19979392       0.05220787       0.81610745      -1.55460072
H       -0.01952225      -1.76850179       1.69416503      -0.22797384      -0.07488802      -0.19047397       0.36964586      -0.08443812       0.65007809
C       -2.71733634       1.05450195       0.62020748       1.11063348       1.26412672       0.43144080      -0.44857535       1.54947674      -0.49126375
H       -4.24640901      -0.20249450       1.68519974      -0.18487237      -0.32617858      -0.01015944       1.29648769       0.36137757      -0.22271955
O       -2.32544886       2.21801562       0.71674642      -0.44208831      -0.71992499      -0.52940017      -0.19901650      -0.78159589       1.06596851
N       -2.91779091       0.59332682      -0.64593242      -0.10000793       0.47391005       1.41939605      -0.69564754      -3.02656698       1.34776032
H       -2.78871578      -0.37870248      -0.92692102       0.01982512      -0.08161753      -0.48961519      -0.21946248       0.09637192       0.39978090
C       -0.31765059      -2.46959367      -0.37182546      -0.41708874      -1.01352292       0.30667739      -2.13330324      -0.38055928      -1.10126769
O       -1.49832966      -2.36279718      -0.71481624      -0.10822952       1.16357286       0.61206220       1.73849118      -0.38916087       1.23694682
S        0.35803029      -3.56461064       0.87543203       0.01783674      -1.29430121      -0.95107625       1.09394572      -0.04266634      -0.62651708
H       -0.75228265      -4.05096616       1.33629665      -0.06032418      -0.53507032      -0.02110026      -1.35201502      -0.46764636       0.37756020
C        0.75546088      -1.79120562      -1.13722593      -0.28273308      -0.56151961       0.47390152       1.22631478       1.45432389       2.04853106
H        0.29153963      -1.53384189      -2.03648630       0.31364360      -0.04270522      -0.17000487      -0.15561838       0.10855532      -2.12737584
H       -2.69414323       1.22059398      -1.34097410       0.14708077       0.07727135       0.03067395       0.74615729       1.84298575      -1.72175419
H        1.64278789      -2.42810107      -1.14167915      -0.08961428      -0.28038626      -0.17887921      -0.04636106       0.28429940      -0.53863585
H        1.01544392      -0.77939221      -0.67616895       0.19550499       0.45922727      -0.02351182      -0.21343307      -1.35461676      -0.20469411
