22
Properties=species:S:1:pos:R:3:momenta:R:3:forces:R:3 energy=-30133.36389491821 pbc="F F F"
O       -2.63812560      -2.18213556       4.27077430      -0.38866246      -0.79499662      -0.46039312      -0.56383367       0.24928588       0.55345263
H       -3.68928952      -2.07921921       5.84621778       0.09913866      -0.05400560       0.09874059       0.43961286      -0.06861266      -0.77149867
O       -2.86546314      -1.18046632       3.23876454       0.96718346       0.46090685       0.12285365      -0.38129226      -1.68819069       0.56575657
H       -2.24973719      -0.53737080       3.59112921       0.21730860      -0.14961613      -0.21830497       0.27948597       0.73466426      -0.04277681
H       -2.74139313      -3.05791973       3.84193610      -0.09794903       0.10658751       0.20609357      -0.09937589       0.72413379      -0.38818851
H       -4.53632155      -0.62443966       3.36330630       0.15253068       0.11255779      -0.24320910       0.11237321       0.73462879       0.36284434
S       -4.95694330      -1.91813564       6.28376395       0.66282176       0.79479187       0.21072532      -0.23163065       0.64737217      -0.88270922
S       -5.38522486      -0.04023849       4.28905666      -0.79062596      -0.66870316      -0.27890467       0.70223854      -1.57695222       1.30725472
C       -4.73260750      -2.37528949       7.99908889      -0.39162030      -0.73363622       1.25259047      -0.46936870      -0.96015179      -0.65631616
H       -4.94466912      -3.42021778       8.03355578      -0.11864964      -0.05872942      -0.04994845       0.33081788      -1.14827287       0.01120820
H       -3.71011304      -2.23655514       8.24938374       0.10179885      -0.02656653      -0.09945092       0.94168025       0.46523061       0.71936625
C       -5.75755487       1.55553744       3.59867390      -0.66752780       0.49944379      -1.22846814       0.37811947       1.08717394      -0.68283486
H       -6.43572051       1.18266731       2.78341332       0.19181599      -0.00595455       0.07564120       0.56348872       1.80892348       0.33404526
H       -4.83948398       2.12108437       3.30038734       0.16327233       0.03973847       0.13452795      -0.47070500      -1.12599885      -0.78049088
C       -6.35321491       2.57160988       4.59400393       0.10808734       0.06017032       0.78942784      -0.30513483       0.25826111      -0.29949969
H       -5.70470062       2.98733401       5.40422295      -0.01515066       0.14479344      -0.13054979      -0.11314109      -0.76008946      -0.78119320
H       -6.76863584       3.41341990       4.04972937      -0.03577345      -0.00113954       0.06659283       0.49099511       0.60962898      -0.56563383
H       -7.25913893       2.22505135       5.00995828      -0.08622249       0.02373388      -0.18492830      -1.03095937      -1.02574384       1.17785716
C       -5.79143424      -1.77448209       8.85806507      -0.23770413       0.11258280      -0.07621654       0.41708067       0.88461584       0.32822335
H       -5.65002363      -2.05191284       9.89493297      -0.03775830       0.11573581      -0.16436375      -0.13210151      -0.19063950       0.39665338
H       -5.80825817      -0.70013226       8.79246938       0.29017728      -0.24954450       0.11873343       0.11424714       0.74855202       0.07372790
H       -6.73425767      -2.10493150       8.48153225      -0.08649008       0.27184955       0.05881141      -0.97259670      -0.40781868       0.02075232
