22
Properties=species:S:1:pos:R:3:momenta:R:3:forces:R:3 energy=-30132.63506964918 pbc="F F F"
O       -6.90268206      -1.26387139       6.61310236      -0.38538655      -0.04104991       0.92733685       0.77191372      -1.40825879      -0.63890777
H       -5.83888189      -0.06834411       6.35062908      -0.14681863       0.43568602      -0.08591967      -0.48570545      -0.27159287       0.29291533
O       -6.19114472      -2.34591104       5.90217281       0.86887168       0.18946730      -0.13605429      -1.09745349       1.69003621      -0.73756861
H       -5.83332730      -2.91670574       6.58453451       0.31237836      -0.07593737      -0.10316029       0.21142834      -0.11910136       0.85585326
H       -7.84295639      -1.51562679       6.45909615       0.14336229      -0.00626089       0.13639435       0.62335545       0.26384801       0.00564749
H       -5.28157313      -1.87087794       4.61073796      -0.12552807      -0.20161606      -0.00223289      -0.30992095      -0.25627676       0.65398793
S       -4.79606476       0.58910050       5.77487492       0.26298927       0.94970670       0.53938784       1.04525758       0.76854522       0.50521337
S       -4.34182674      -1.19700766       3.89065499      -0.44695253      -1.03594940       0.08611447      -0.07047496       0.82015674       1.41768431
C       -4.36024772       1.93937203       7.05997138       0.25193265       0.26090413      -0.29503171      -2.17500114       0.23915669      -2.56961727
H       -3.42682303       2.35097529       6.72205294       0.23128674      -0.04546587      -0.15622127       0.97993028      -0.25397748       0.06599165
H       -5.05438737       2.77236139       6.76604610      -0.12356999       0.00636084      -0.32788605       0.24472167      -0.69772041       0.63265353
C       -4.06563008      -2.42297037       2.64005288      -1.12193512       0.43019545      -1.14460241      -2.06470108       0.22065909      -2.21843815
H       -3.62347149      -1.77525594       1.87076006       0.01343023      -0.14453905      -0.06139071       0.26961198      -0.74579746      -0.33404225
H       -5.06686144      -2.73518926       2.27111768      -0.08870122       0.02526595      -0.20299652       0.31450880       0.51337135      -0.16393608
C       -3.36243663      -3.68066826       2.99709005       0.73936363       0.35113268      -0.27656474       3.21407413       2.02198052      -0.61196017
H       -2.33700159      -3.33016039       3.32885773      -0.03921648       0.12948636       0.06711031      -0.93137044      -1.15500963       0.22604668
H       -3.96193236      -4.11016969       3.72353327       0.01081896       0.21042941      -0.13813419      -0.64449382      -1.45632780       1.96547866
H       -3.23551251      -4.35934747       2.16332472       0.03421465      -0.33830345       0.20144148      -0.10139990      -0.12708735      -0.39005890
C       -4.43416642       1.59281675       8.49385878      -0.57295481      -0.51473782       1.14200626       0.16176948      -1.44497788       1.57755804
H       -3.88973889       0.63817786       8.78303375       0.04225921      -0.34596108      -0.04982460       0.25443244       1.43302536      -0.45708749
H       -4.09449962       2.49888992       9.03793657       0.05060601      -0.32041814      -0.13576228      -0.08593416      -0.78259534       0.25922936
H       -5.43675419       1.28810317       8.84202946       0.08954895       0.08160390       0.01598992      -0.12454800       0.74794322      -0.33664259
