22
Properties=species:S:1:pos:R:3:momenta:R:3:forces:R:3 energy=-30135.67298161167 pbc="F F F"
O       -5.54022539       6.10886618       1.47799389      -0.06931623      -0.35778945      -0.82014473      -3.04417863       0.30982798      -1.28406989
H       -5.41599313       7.06683352       1.44080839       0.23494599       0.03607408      -0.10261281       0.72701522       0.41173346       0.26183053
O        5.46021719     -29.84072838      -7.73087867       0.27114795      -1.69751595      -0.98568758       4.43895423       1.47257813       0.86969436
H        4.69441200     -30.19245584      -8.08391040       0.14714251      -0.10810179      -0.04468411      -2.99040461      -0.61670810       0.19410378
H       -6.49205642       6.12677527       1.08378907       0.02462225      -0.24334727       0.20929328       2.31716347      -0.72156143       1.02223933
H        5.52881270     -29.40012611      -6.84908370       0.29947221       0.11339910       0.13727240      -1.44854962      -0.85586997      -1.06379808
S       -6.06766125       1.47892100       7.21091163      -0.97686958       2.95804867      -1.10093027       0.11817091       1.01739498       0.23821729
S       -6.08308873       2.30362390       9.28571802       0.86529483       2.01106702      -0.53948431       0.21489773       0.71634582      -2.60308939
C       -7.10298032       2.32289024       5.83903507      -0.01283465      -0.97165916       0.83922928      -2.07661366      -1.95608497       0.43244722
H       -8.15752140       2.17058560       6.27868094      -0.01863788       0.19131709       0.04469235       1.39326012       0.47467589      -0.91025186
H       -6.99582010       3.37823592       5.56276990      -0.19215589      -0.07921235       0.11461467       0.69418949      -0.10682894       0.67255950
C       -5.62112800       4.06190344       8.76174567      -1.00921427      -0.61417970       0.68120884       0.09040291      -0.94454634       0.51027125
H       -6.20924905       4.44754774       7.93913876       0.10239682       0.16254223       0.07910436      -0.54827929      -0.20936707      -0.26996401
H       -4.56693324       4.12377519       8.44369008       0.03605520      -0.17599133       0.05383732      -0.29659802      -0.37113059       0.18801671
C       -5.84889101       4.81188238      10.05133481       0.91350407      -0.23574987       0.26434053       1.02579463       1.04370010       0.73388433
H       -5.62274993       5.93310826       9.93968593      -0.42452855       0.05712793       0.13602534      -0.78766358      -1.46968305       0.17499942
H       -6.84565906       4.55835826      10.48980169      -0.15809649      -0.16898508      -0.33746226       0.69094628       0.73215020      -0.30975616
H       -5.06021749       4.42149520      10.73174321      -0.14929333       0.02287239      -0.02170436      -0.60350215       0.35912001       0.09679833
C       -6.89905984       1.36445596       4.62603689       0.69753389      -0.37403650       0.61347336       1.37091386       2.64102650      -0.29815915
H       -7.05227756       0.37924318       4.90576332      -0.34029297       0.15579224       0.27884179      -0.56867588      -2.20571971       0.64129245
H       -7.50242009       1.58491304       3.73280280      -0.16733351      -0.13041153       0.29420537      -0.21911158       0.18567148       0.38603503
H       -5.84405580       1.41167924       4.26463742      -0.07354176      -0.55126088       0.20657175      -0.49813175       0.09327540       0.31669909
