20
Properties=species:S:1:pos:R:3:momenta:R:3:forces:R:3 Coordinates=T from=T ORCA-job=T int=T E=T -1253.934929368563=T energy=-23252.0060690854 pbc="F F F"
N       -0.51187917       0.80474429       0.64840793       0.06120007       0.71471371      -0.71855895      -0.95568870       0.52126057       0.15595700
C        0.00456226      -0.37949759       1.40142223      -0.68073536       0.59158794      -0.25128718      -0.17811781       1.07356775      -0.07652742
H       -0.64668596       1.66325424       1.21032563       0.24219972       0.07286268      -0.12284652      -0.17792022      -0.46753180      -0.32250351
H        0.24362707       0.87952876      -0.01849614       0.06816390      -0.04284879      -0.01632044       0.74325557      -0.02120582      -1.39553782
C       -0.21540828      -1.54984924       0.44420626       0.64099627      -1.62542596       0.39206599       2.38377714      -0.27477413      -0.74330014
S       -0.34385325      -0.87051484      -1.23625187       0.91346036      -1.18180562       0.06601814      -0.77661855       1.10927633       1.32597574
H       -1.05288047      -2.19465470       0.61724117      -0.19509150      -0.15942640       0.01322233      -0.66860592      -0.21191980       0.50680190
H        0.73439821      -2.12624202       0.47693862      -0.07901212       0.20991166       0.04387996      -0.79387385      -0.23092322       0.00584395
C       -0.54497097      -0.51552035       2.80620309      -0.54548438       0.36676155       0.63993478      -0.34371808      -0.73120189       0.00693260
H        1.06487407      -0.14762813       1.55624993      -0.24433177       0.00215329       0.04968443      -0.28924906      -0.68478203      -0.17934291
O        0.20267486      -0.85600278       3.71044002      -0.06456146       0.92309899      -0.70409400      -0.23296846       0.27964163      -0.10163876
N       -1.87692699      -0.29927675       2.96304810      -1.34183365       0.68120532       0.11634096       0.74346256       0.17053849       0.70430100
H       -2.56138009      -0.17345261       2.25123729       0.12832018      -0.60063343      -0.13380586      -0.13244513       0.12843695      -1.01868367
C       -1.62164458       0.44501797      -0.35129747       0.41040652      -0.33720433       0.86283308       1.17799797      -0.45127316       1.39970760
O       -2.61409379      -0.03857845       0.22172564       0.24444020       1.14070841       0.15346865      -0.73657107      -0.75693440      -0.14609456
C       -1.85172927       1.59489654      -1.31263090       0.14648503      -0.81266938      -0.68009093       0.55591536       0.83201689      -0.46821296
H       -2.10548444       2.49524732      -0.72530141       0.12471729       0.13783372       0.02443680      -0.41950172      -0.37736464      -0.23241895
H       -2.19274364      -0.33567293       3.91202388       0.08635146      -0.00905482      -0.06596183      -0.20042709      -0.13317145       0.42193028
H       -2.57826079       1.37841581      -2.11527764       0.03006890      -0.12906789      -0.01603847       0.20211393      -0.01616883       0.63041043
H       -0.87472638       1.79478500      -1.74798476       0.05424089       0.05730073       0.34711832       0.09918286       0.24251220      -0.47360063
