22
Properties=species:S:1:pos:R:3:momenta:R:3:forces:R:3 energy=-30132.78702314125 pbc="F F F"
O       -3.64799080      -0.52826005       2.98710049      -1.53284107       0.14192925      -0.17098008       0.11161653       0.88265852       1.35816257
H       -3.68586094      -1.02297650       4.52999213       0.03107390       0.18875647       0.02361542       0.68192237       0.09094276       0.47925748
O       -4.97133771      -0.01906676       2.97498679      -1.01944842      -0.69738904      -0.55603748      -0.70182699      -1.37505874       0.67092259
H       -4.88502048       0.83066606       2.55154843       0.00385024       0.15177104       0.17901855       0.23233524       0.94491935      -0.35988176
H       -3.67273355      -1.29880725       2.42428339      -0.21500158      -0.10388277       0.13700497      -0.27452862      -0.87621260      -0.69377244
H       -5.86530942      -0.46331446       4.29076176      -0.18747319      -0.37379481       0.00499867       0.55770874       0.43572989      -1.20653082
S       -3.71091956      -1.14493426       5.92373413       0.92847646       0.50226876       0.82068727       0.00041698       0.20718487      -0.06202723
S       -6.21823871      -0.71781266       5.55363306       0.00036523       0.82447163      -1.22709953       0.77137686      -0.21489207       0.87828392
C       -1.88448299      -1.28744281       6.32119232       1.09475527      -1.50134492       0.71948441      -0.79760426      -1.51156771       1.63571751
H       -1.73756480      -2.17344148       7.05317950       0.00404366      -0.02305844       0.15747281      -0.50071329       1.27700853      -1.07841480
H       -1.51685414      -1.65717612       5.37791572      -0.07436687       0.20546006       0.21173671       0.90572691       0.32184228      -0.39802182
C       -7.97818476      -0.88100643       5.27997237       0.79484482      -0.02932897       0.40093090      -0.90692765       1.09009778      -1.93673658
H       -8.19256949      -1.48384639       4.40146488       0.15933899       0.16675783      -0.02816814       0.33226120      -0.95937085       0.01583383
H       -8.43322016       0.04833836       4.90825428       0.12675166      -0.05425532      -0.15637189       0.41786161       0.48042637       0.54665488
C       -8.68718137      -1.34248247       6.48998028       0.73114473       0.02696840      -0.85533081      -2.08864975      -1.66887140       0.07418077
H       -8.68345893      -0.56937274       7.25936504       0.22589649      -0.39361098       0.13017215       0.40451127      -0.41768929       0.50206357
H       -9.78295335      -1.49919812       6.23825907      -0.05960314      -0.02281086      -0.41963631       1.01069629       0.26539159       0.15754089
H       -8.34333653      -2.37763262       6.76533048      -0.22686229      -0.12028447       0.08608273      -0.00495072       1.17317486       0.45892876
C       -1.25699761      -0.00312574       6.92077994      -0.60662759       0.73589194       0.32693916      -0.61980957      -1.25879276      -2.73258495
H       -0.18279641      -0.15188848       6.84991974       0.12273273       0.05442917       0.29852712       0.32129580       0.41450578       0.21161649
H       -1.60771455       0.77801596       6.23632614      -0.09614091       0.35149471      -0.09378148       0.48828208       0.51137209       0.38562444
H       -1.58201004       0.18084148       7.91240445      -0.20490910      -0.03043862       0.01073601      -0.34100085       0.18720157       1.09318316
