20
Properties=species:S:1:pos:R:3:momenta:R:3:forces:R:3 Coordinates=T from=T ORCA-job=T int=T E=T -1253.934929368563=T energy=-23252.84869514217 pbc="F F F"
N       -0.01404046      -0.10517288       2.16220532       0.69511435       0.34792036       0.09679717      -1.59263700       0.98040143       3.42759204
C        0.09105060       0.77021602       1.05859785       0.00064906      -0.34267428       0.22204457      -1.98198247      -0.37103540       0.05478904
H        0.06126835      -1.04483557       1.91430500       0.16857191       0.02699817      -0.22611104       0.45545813      -1.87884796      -0.88658011
H       -0.91668070      -0.04789619       2.72314512       0.06500410       0.15302359       0.25529839       1.87700384       0.33574143      -0.86123116
C       -1.15094130       0.81170984       0.13037771       0.57533361      -0.20183601      -0.03950103      -0.89255846       3.83204603       0.64818740
S       -2.74911028       0.48620084       0.91075020      -1.36419411      -1.72402645      -0.48429351      -0.29229789      -0.23967120       0.06103803
H       -1.06199352       0.27892471      -0.77312316      -0.16223356      -0.04694195       0.17887109       0.15009926      -1.05745947      -1.12222314
H       -1.29706630       1.90777562      -0.17223655       0.04946177      -0.02462554      -0.04274838       0.41308340      -1.39677835       0.09335472
C        1.15328710       0.22488692       0.21094964      -0.49960665       0.55231845      -0.65080334       4.37635326      -1.62886095      -0.21870917
H        0.30606304       1.76229517       1.45963441      -0.07916992      -0.09805518       0.29997878       0.09521504       0.40966380      -0.31857044
O        1.46824166      -0.96818390       0.22004241       0.99413627      -0.38642419      -0.02583063      -1.08406031       0.79449743      -0.32696149
N        2.01576571       1.13075388      -0.35766071      -0.69837474      -0.00140592       1.01982189      -1.96676028       2.99750781      -0.72619325
H        1.61615615       2.02566673      -0.72386554      -0.28521114      -0.01690371       0.22501555       0.26928300      -1.01932263       0.94757205
C       -2.57136011      -1.32357676       1.01815056      -0.26912553       0.80072562      -0.93527874      -1.02223712      -0.04757305      -2.83548785
O       -2.58743182      -1.95932967       2.01995857       0.53158621       1.06374620      -0.45557709       0.18459216      -0.44898927       1.29212821
C       -2.53446507      -2.00467497      -0.38139287       0.62587275      -0.06289246       0.40793721      -1.06564260       0.15853757       0.02415109
H       -1.61875814      -1.95107976      -0.89896847      -0.25523470      -0.02868816      -0.05317458       1.81748986       0.92261738      -0.30296171
H        2.76338101       0.88826134      -0.95466863      -0.09627267      -0.10223469      -0.00970263       0.81553978      -1.34533608      -0.46058318
H       -3.27279627      -1.67072281      -1.16449208      -0.10515165       0.06825536       0.28020976       0.24086779      -0.22106962       1.25496435
H       -2.56707464      -3.06556192      -0.22306727       0.10884487       0.02372074      -0.06295431      -0.79680866      -0.77606887       0.25572374
