23
Properties=species:S:1:pos:R:3:momenta:R:3:forces:R:3 energy=-34119.69113120365 pbc="F F F"
N       -1.14085717       1.51517808       2.98106048       0.40673462       0.43899982      -0.71512176      -0.39589828      -0.72850168      -1.09192896
C       -2.11503403       0.81815298       2.08495088       0.02834882      -1.30024617      -0.06177758       1.60316741      -0.11277425       0.58837855
H       -0.27429169       1.54922054       2.47574324       0.21552530       0.18593447      -0.04648791       0.92020106      -0.60252559      -0.31786489
H       -1.30087903       2.50003497       3.00499873      -0.25552529       0.18010041       0.11285034      -1.05443680       0.95979047       0.16448185
C       -1.86612384      -0.69725045       2.36573374       0.46264437       0.28165580      -0.05672116      -0.43648395      -0.17647311      -1.19258428
S       -0.18905012      -0.97969395       1.80180599      -0.25456547      -0.53332068       0.19136279       0.73927982      -0.05747526      -0.71795548
H       -2.51568857      -1.36765330       1.77606342      -0.22280010       0.18329339      -0.29720434      -0.00429636       0.51376200       0.19652601
H       -1.88679361      -1.03785115       3.39807495      -0.24729125       0.17582704      -0.27807856      -0.40511847       0.68471485       0.31786576
H       -0.30086610      -2.30273530       1.52341690      -0.25293863       0.18487879       0.02951345      -0.07890908      -0.34986794       0.30230925
C       -1.95773246       1.19869193       0.54033923       0.59101963       0.41203074       0.54748561       0.12954010       0.45669430       0.66845036
H       -3.08400112       1.12850592       2.42275271      -0.32997753      -0.10000991       0.34802287      -0.97806764      -0.08542761       0.12111322
O       -1.04931783       1.92800901       0.14824774      -0.40515293      -0.02902371       0.22894784      -0.63165975      -0.57399523       0.51491588
N       -2.97589342       0.79920906      -0.27994776       0.01239846       1.01038554       0.15050473      -0.18938108       0.51006967      -0.51031518
H       -3.52531415      -0.04787176      -0.21234186       0.14644833       0.08888092      -0.31119326       0.24518578       0.00036726       0.43785003
C       -1.43345198      -2.51851930      -0.45751076       0.35005215      -0.21989197       0.05479855      -0.12992652       0.54182053       1.35992251
O       -2.56924105      -2.12545182      -0.40211847       1.14379534      -0.64805822       0.21062648      -0.21340156      -0.40006614       0.21427086
S       -0.86042853      -3.86492498       0.71188836      -1.08757392      -0.17880999       0.43807647       0.58098395       0.26015151      -1.22348056
H       -1.97132482      -4.00273778       1.43096069       0.29180858       0.23651806      -0.09149944      -0.42240694       0.21996701      -0.10577817
C       -0.46518270      -1.89606790      -1.41669369      -0.25790113      -0.68041964      -0.25888266       3.89492130      -2.76664424       1.42989862
H        0.20590087      -2.66742795      -1.91241184      -0.00007997       0.12982445      -0.05868474      -0.92629433       0.66119343       0.57568264
H       -3.03405703       1.26985080      -1.18617293      -0.38158840       0.20749153       0.25774590       0.35410681      -0.35205102       0.41358620
H        0.26533301      -1.17885383      -0.99202376       0.13914579       0.08262545      -0.39140709      -0.64425987      -0.27404562       0.32404438
H       -0.98800418      -1.42060046      -2.13979599      -0.09252738      -0.10866754      -0.00287681      -1.95684576       1.67131627      -2.46938896
