23
Properties=species:S:1:pos:R:3:momenta:R:3:forces:R:3 energy=-34118.85445596559 pbc="F F F"
N       -2.74297775      -0.40785215      -2.36208172      -1.14987824      -0.16272213       1.25583950      -0.09537054      -0.17861575      -0.82750636
C       -2.15435856      -0.82006026      -1.11924828      -0.71600276      -0.06425665       1.06088336      -2.03785110      -0.76705492       1.97863746
H       -3.55429487      -0.96315905      -2.63840940       0.18585068       0.17696177       0.02562324       0.00494256      -0.04964519       0.67719460
H       -2.08078170      -0.63842314      -3.08648642       0.15463407       0.13678668      -0.23595554       0.41468912       0.14126325      -0.47420490
C       -0.93769358      -0.00354636      -0.82844483       0.79695030      -0.80800946      -0.84210337       2.97161078       0.90030986      -0.80971593
S       -0.65986125       0.58585247       0.87289638       0.06657623       1.34943916       1.15265152       0.56065242       0.22921164      -0.75317262
H       -0.94468085       0.91402035      -1.46112175       0.04737826      -0.02615422      -0.15645421      -0.20898193      -0.62594956       0.20407706
H        0.05983162      -0.51628639      -1.05731836      -0.08750588       0.29189845      -0.11462298      -1.47438240       0.37438735      -0.09576017
H       -1.72949568       0.07117876       1.44590585      -0.00002070      -0.26676824      -0.00541621      -0.61842208      -0.12168977      -0.27245802
C       -1.97674165      -2.39507920      -0.99396238       1.02896151      -0.66160108      -1.05639696       0.87748736       0.83854020      -0.10737869
H       -2.90690302      -0.51906879      -0.30859680       0.26544890      -0.02409223      -0.11976618       0.62638593      -0.63993967      -0.90789294
O       -2.76335635      -3.16295500      -1.49272721      -0.39676199       0.79118223      -0.62671047      -0.73048413      -0.07032923      -0.49325490
N       -0.81609758      -2.84034107      -0.40436623       0.13733765      -0.70197616      -0.92423314       0.58271199       1.36595821       2.13113308
H       -0.48897864      -2.39287657       0.51100406      -0.02207031      -0.32899607      -0.13344899      -0.55787307      -0.64283079      -1.72022700
C       -0.48316649      -0.83782423       2.95891396      -0.29930075       0.27908653       0.31414830      -0.01648591       0.65369069       0.49190257
O       -0.48956857      -1.96760422       2.56216162      -0.91821065       1.11693730      -0.13493452       0.89755511      -0.57102185      -0.33905703
S       -2.10806351      -0.07596526       3.26744408       0.03513200       0.13945163      -0.20304097       0.09475253      -0.96430101       3.19426126
H       -2.06733043      -0.67394076       4.58384222       0.08132489       0.02915641       0.03050211      -0.62841016       0.98741502      -1.69333839
C        0.70247318      -0.06968891       3.54076089       0.57037535      -1.23476707       0.83049590      -0.36807737      -0.15355015       3.16969013
H        1.61826273      -0.08956635       3.02266995       0.48341277       0.02958150       0.03412955       0.86572814      -0.14737788      -1.67551827
H       -0.75279969      -3.84283138      -0.36577486      -0.19166977       0.05301424      -0.21539159      -0.14503616      -0.36317608      -0.03276291
H        1.04236360      -0.60749197       4.51818971      -0.02374664      -0.31138118       0.10296135      -1.08540988       0.86882621      -1.34919357
H        0.46137616       0.99759117       3.80356032      -0.04821434       0.19722845      -0.03875945       0.07026837      -1.06412017      -0.29545459
