22
Properties=species:S:1:pos:R:3:momenta:R:3:forces:R:3 energy=-30132.44140679254 pbc="F F F"
O       -5.33599463       0.50622395       3.25782212       1.26715162      -0.03296253      -0.16559722       0.75133336       1.50833099       0.57180371
H       -5.48427333       0.54450798       4.75924432      -0.29526848      -0.03670839      -0.17697717      -0.16875506      -0.28469812       1.19336269
O       -4.47065479      -0.51023718       2.70418685      -0.28929407       0.76321292       0.45098583       2.20824928       2.30787386       2.72018219
H       -5.11277337      -1.03610088       2.32148388      -0.18016881       0.07834681      -0.22161617      -2.43795323      -2.27973104      -1.73839140
H       -4.85164268       1.40216670       3.15726481       0.02762264      -0.22319376      -0.12814037      -0.49475834      -1.76631010      -0.15889920
H       -4.20091636      -1.24461718       4.17807549      -0.08166631       0.19349338      -0.27131963       0.44238144       0.04461042       0.44026791
S       -5.42034284       0.29081062       6.22898549      -0.88853370      -0.18746441       0.21058957       0.40960833      -0.32423902      -1.40714292
S       -3.78464169      -1.60907960       5.48916346       0.30747523      -0.75277496      -0.03978681      -0.57203337       0.42230607      -1.26677371
C       -6.93319747       1.22480751       6.67799201       0.08095094       0.14818367      -0.43699690      -0.93643892       1.46580005      -1.55882943
H       -6.67440443       2.07064302       7.34058911       0.44895142       0.23162915      -0.30141931       0.07529070      -0.33876306      -0.25390825
H       -7.25543667       1.66232686       5.67042071       0.17696562      -0.17548855       0.27966641       0.25082591      -0.28810409       1.44650936
C       -3.11458361      -3.23662049       4.88581757       0.25542806      -0.30785205       1.01935833       0.32377619       0.25194544       1.62657177
H       -2.85051277      -3.10220074       3.84586111      -0.25108398      -0.09074339      -0.29084530       0.36732468       0.00207885      -0.30743951
H       -3.96495233      -3.90167964       4.93083495      -0.01912744      -0.33683325       0.23354019      -0.08245119      -0.64435279       0.01827408
C       -1.87846020      -3.68850795       5.75585671      -0.33904072       0.27440196      -0.19795224      -0.62082070      -0.52538085      -1.42939317
H       -1.22360715      -2.82270157       5.76205045      -0.12974485       0.13733739       0.05571599       0.44292557       0.08743092       0.31561840
H       -2.10173085      -4.01248290       6.80824896       0.03836271      -0.24392474       0.29277884      -0.00969356       0.27199841      -1.11186242
H       -1.35188606      -4.50181354       5.16091717      -0.08965106      -0.23997692      -0.01344590      -0.52805918       0.69139105       1.01641512
C       -8.07262609       0.34906009       7.23520871       0.00220666       0.61962976      -0.55750394       0.89756417       1.66683686      -0.60957545
H       -8.07144533      -0.45709395       6.56509117      -0.07235234       0.20617378       0.01882342      -0.57963443      -1.77267301      -0.78702813
H       -7.78426706       0.02877271       8.20566503       0.13962856      -0.00576337       0.22053725      -0.10462152      -0.53851485       1.15167713
H       -9.05844878       0.83873094       7.22309661      -0.10881074      -0.01872295       0.01960505       0.36593997       0.04216439       0.12856217
