22
Properties=species:S:1:pos:R:3:momenta:R:3:forces:R:3 energy=-30134.35591956578 pbc="F F F"
O       -8.34854334       2.47307805       7.83970359       0.18577219       0.92417277      -1.58641244      -1.28956280      -2.20381551      -0.70669964
H       -7.70147564       2.73594049       7.16813570       0.09231326       0.02376170       0.08871030       1.73649170       1.40178149      -0.84768781
O       -1.84731961     -16.10572795      -0.68408851       1.68790729      -3.60972235      -2.02332616       2.22321875       4.24337792       1.70416463
H       -2.68140779     -15.73547620      -0.79350014      -0.01587002      -0.32148847      -0.03592071      -2.35745335      -0.66814208      -0.77230418
H       -8.61944851       1.67939588       7.29316237       0.08344481       0.83355220       0.36610217      -0.34572065       0.76032662       1.49924278
H       -1.41677750     -16.91884680      -0.79559536       0.14110897      -0.21496363       0.11343608       0.13423472      -3.57523584      -0.93186040
S       -3.86508718       1.52805359       6.49386929       2.35487753       1.78309469      -0.48410134       0.05202685      -1.03793421       1.77577723
S       -5.57124549       0.73816030       5.48769029      -1.45548583       1.44459228       2.75761582      -0.98889063      -1.15812206      -1.13054863
C       -4.52799614       3.17603156       6.49070403       0.71714575      -0.95320607      -0.12815296       2.18433714       0.86279541      -3.89818978
H       -5.38213201       3.52101113       7.05093927       0.12807799       0.03653341      -0.05995131      -0.03299817      -0.42301574       0.64680743
H       -3.56562251       3.67834833       6.63371666       0.12719327      -0.08864477      -0.31147350      -0.56122291       0.85258031       1.05660939
C       -5.39234770      -0.99481056       6.05953409      -0.92113254      -0.11675103       0.52163454      -0.43040016       0.58988750       0.12990139
H       -6.46711740      -1.37480607       6.11610268      -0.28733218       0.10468010      -0.51705541       1.49428034       0.19752313       0.25287387
H       -4.95773081      -0.72123185       7.05051735      -0.16895422      -0.13118637       0.15279364      -0.51875323      -1.27951252      -0.14344189
C       -4.45353428      -1.95115935       5.27746122      -0.57718287       0.65541403       2.04076290      -0.45623875       2.03520727       0.90500212
H       -3.56963884      -1.48437103       4.85304627       0.07816774       0.23271184       0.58628892       0.39819399       0.32282043       0.54815650
H       -4.23928129      -2.70077155       5.99550171      -0.11014079       0.07838455      -0.12340208       0.77624124      -1.10146785       0.53696746
H       -4.90680940      -2.39130116       4.44573240      -0.21496995      -0.06321502       0.42920453      -1.28636777      -0.84756887      -1.38796139
C       -4.69485027       3.38929924       4.93186703      -1.61953537      -0.01545109      -1.31190368       2.21975589       0.26216823      -1.26669359
H       -4.44308015       4.37195560       4.49664077      -0.36902677      -0.00586582      -0.09212947      -0.29819387       0.40214679       0.94331259
H       -3.89083253       2.76499824       4.32936082       0.03697312      -0.12651684      -0.39478139      -1.78971469       0.79191768       1.32218683
H       -5.66158468       3.15359146       4.55343215       0.10664831      -0.46988598       0.01206126      -0.86326391      -0.42771834      -0.23561504
