20
Properties=species:S:1:pos:R:3:momenta:R:3:forces:R:3 Coordinates=T from=T ORCA-job=T int=T E=T -1253.934929368563=T energy=-23253.557101327446 pbc="F F F"
N       -0.44799645      -1.58937979       1.33159314      -0.66638431       0.02775146      -0.28101750       0.87627193       0.60929883      -1.33017232
C       -0.67394085      -1.29444520      -0.14231224       0.67695573      -0.16303927       0.82927575       0.53635973      -0.75241673       0.93979990
H       -0.37247189      -2.61633817       1.40585421       0.05024115       0.02920227      -0.01335095       0.07978591       0.62792462       0.08908895
H        0.50622942      -1.17691824       1.49498645       0.26228996      -0.09182414       0.07544144      -1.04480440      -0.87310536       0.10200217
C       -0.40871571       0.20471948      -0.45677763      -0.47930279       0.18658473       0.35274666      -0.71858805      -0.11201435       2.44830775
S        0.75231813       0.94962375       0.73864935      -0.12956925       0.42862845      -1.53765590      -0.68485331       0.09396251       0.08055115
H       -1.35116913       0.74033372      -0.30337956      -0.20005563      -0.22160361      -0.19437638       0.16339388       0.18128949       0.09943956
H       -0.05013535       0.49408806      -1.38573833      -0.21203057       0.16982246       0.21938623       0.77152461      -0.22274236      -2.27444029
C       -2.11634689      -1.60553216      -0.50246600      -0.87468831      -0.03830729       0.08531501       0.22178224      -0.41177034      -0.63247919
H       -0.06153272      -1.97350043      -0.79657337       0.03684606       0.23267475      -0.04091088      -0.42037141       0.67488343       0.33781981
O       -2.32650434      -2.13124510      -1.57811534      -1.01338682      -0.28896342      -1.30965838      -0.33856711      -0.16529548      -0.54745805
N       -3.11484965      -1.23203155       0.32702158       0.28233899      -0.06806865       0.81446844       0.19132727       0.15174621       0.03943133
H       -3.01276619      -1.08861221       1.30279393       0.03943819      -0.46966709       0.08790134       0.66858429       0.36500061       0.79780388
C       -0.51594527       1.07508569       2.00147188       0.00007835      -0.35022220       0.73536000      -0.86361863      -0.01279352       1.31662001
O       -1.70990704       1.21663005       1.77538363       1.71927574       0.08180292      -0.85678032       1.22753954      -0.02661830      -0.08956581
C       -0.05254425       0.94790445       3.46320743       0.51155474       0.39642147       0.62952347       0.01727128       0.04175666      -0.40674341
H       -0.50655144       1.72564438       4.06946706       0.04172850       0.01091203       0.09450118      -0.18295130       0.32116228      -0.03863358
H       -4.04592361      -1.36816055       0.01043493       0.03136703       0.07710732       0.27620496      -0.65327013      -0.29443812      -0.44859558
H        1.02183483       0.97135098       3.60525573       0.00082277      -0.13993053       0.02521119       0.35330230       0.08827778      -0.22605109
H       -0.41805542       0.01089651       3.88290384      -0.07751965       0.19071924       0.00841463      -0.20011824      -0.28410798      -0.25672492
