22
Properties=species:S:1:pos:R:3:momenta:R:3:forces:R:3 energy=-30132.046294799784 pbc="F F F"
O       -2.92539537       0.49789893       4.00291148      -0.36078288      -0.68317224       0.41263849      -1.24662060       0.03913384       0.22995711
H       -3.17541745      -0.23283070       5.40037834      -0.31838456      -0.16505204       0.36029517      -1.04956752      -0.39121443       0.12732982
O       -4.11827410       0.25612699       3.18773221       1.11355017      -0.11521747      -0.13607075       1.79786079       1.62727408      -0.50661395
H       -4.51852038       1.18245632       3.08237351       0.13241642      -0.20511606       0.32847000       0.46567306      -1.23393476       0.32043731
H       -2.15422539       0.22602897       3.47625288       0.05979542      -0.05477489       0.17787291      -0.17331609      -0.23692739      -0.50360453
H       -5.13191378      -0.59778299       3.79098032      -0.12571473       0.18316349       0.00151436      -0.52796822      -0.00811247       1.01750527
S       -4.00711701      -0.96118975       6.30377439       0.15198876       0.05409587      -0.15302441       1.02636378       0.10169062      -0.14558933
S       -5.99560117      -0.73693055       4.89373396      -1.96536606       0.36321573      -0.13299084       0.39791853      -0.09098426       0.30961869
C       -2.54854326      -1.45429694       7.31395430       0.25609662      -0.50567272       0.95273171      -0.67367244      -1.74374735      -0.04223245
H       -1.88657375      -2.01133888       6.63983002       0.12588804       0.14015374      -0.05218127       0.00526354      -0.13201143       0.26599121
H       -2.11987949      -0.51046797       7.47353151       0.09220985      -0.01317250       0.25063200       1.04880404       1.25272441       0.93859524
C       -7.43581488      -0.37636292       3.90877609       0.37597265       0.45391232      -0.98101575      -2.03080964      -0.78430212      -0.19984825
H       -7.10450267      -0.53179416       2.90241077      -0.22846079      -0.04052455      -0.14864690      -0.17650744      -0.49208295      -0.85172385
H       -7.76138611       0.65701780       3.90928632       0.00130667       0.16437006       0.00423972       0.08904419       0.47289896       0.57222664
C       -8.61091214      -1.31931790       4.32999339       0.38311274       0.72368992      -0.37243861      -0.31101003       0.44816557      -1.97009671
H       -8.86665297      -1.25069980       5.36889345       0.19983337       0.22989843       0.06625634      -0.40997827       0.63497853       0.65392458
H       -9.51068653      -1.23575264       3.64539763       0.27461770       0.02361857      -0.10103311       0.74850261       0.60899132       0.95856810
H       -8.39341627      -2.35861811       4.20586613      -0.03353090      -0.09610551      -0.48259496       0.93129778      -0.91836989      -0.18672465
C       -2.95790032      -2.25824170       8.58687280      -0.03985128      -0.87387084      -0.14798592      -0.86749041      -1.33908594      -1.69776142
H       -2.11799702      -2.64252897       9.17751502      -0.04630351       0.04393952      -0.14078275       0.15040892       0.61718148       0.02872322
H       -3.65641807      -1.64813194       9.17078281      -0.14146663       0.01904029       0.21620869       0.18743533      -0.26646659       0.23636062
H       -3.49509845      -3.24214943       8.26136312       0.09307257       0.35358112       0.07790632       0.61836851       1.83420134       0.44495791
