23
Properties=species:S:1:pos:R:3:momenta:R:3:forces:R:3 energy=-34119.625049273476 pbc="F F F"
N       -1.82234899       1.38129716       3.12998384       0.33387159      -0.17134439      -0.13145518      -1.56844389      -0.09979043       1.29661226
C       -2.60704438       0.82479924       2.07997178       1.01198008       1.39102146      -0.02766591       0.61470520      -0.07912530      -0.19476593
H       -0.92711699       1.42180065       2.73270821      -0.00220945      -0.00154316       0.05465021       1.90955639       0.83479005      -0.10741615
H       -2.16400051       2.29839726       3.40655146      -0.16085627      -0.24448046       0.21715028       0.44995129       0.03732746      -0.28781575
C       -2.32195751      -0.65940825       2.09816162       0.46416472       0.36531945       0.57946138       1.29361105      -1.59607172       1.78364480
S       -0.48317591      -1.11167034       1.98125716      -0.05978449       0.04866627       0.94811648      -1.27084745       0.67202359      -0.64873993
H       -2.77883591      -1.18676246       1.30505869      -0.07177529       0.20975203      -0.12308479      -0.66874719      -0.73816133      -0.94651818
H       -2.66194922      -1.11234269       3.09676140       0.27176684       0.01272624       0.04724350       0.32764867       0.79819906      -1.46467626
H       -0.60220051      -2.31746752       1.39482723       0.09082311      -0.08136696       0.11310310       0.00929924      -0.41766984       0.28858976
C       -2.27981968       1.53438659       0.72748913      -1.37118812      -0.41673871      -0.36483361       0.05079965      -0.33653507       1.68799436
H       -3.65636581       0.89545217       2.31574618      -0.30615098       0.19085145      -0.05234739      -0.80732691       0.31707987      -0.03382801
O       -1.39288361       2.36805336       0.69170369       0.24340073      -0.61863128      -0.27086446      -0.17052123      -0.04125098      -0.50082684
N       -3.05798716       1.17792919      -0.32131658       1.01453319      -0.10139535       0.59412034      -0.31792286      -1.10657918       0.54680860
H       -3.44002469       0.21079511      -0.26258617      -0.06910953      -0.00804056       0.00900438       0.43022481       1.17665076      -0.66299456
C       -1.02034308      -2.63447439      -0.57341838      -0.08695664      -0.18061765      -0.86127923       1.95876563       0.41220451       0.28894574
O       -2.19122178      -2.42903562      -0.65512699      -1.08725860      -0.33088339      -0.10224658      -0.31426921      -0.19786230       0.29730868
S       -0.14472843      -3.99704671       0.36581534      -0.40402732      -0.58249347      -0.53072919       1.69234306       2.22682601      -1.00399272
H       -1.14623051      -4.65010208       0.73104171      -0.06438634       0.17351391      -0.05036919      -2.79245734      -1.62780499       0.90547311
C        0.13445155      -1.87692499      -1.25336466      -0.58954792       0.66202485      -0.06103247      -0.42336118      -0.08891237      -1.56714654
H       -0.18447054      -0.97087913      -1.83657205       0.22105395      -0.27896784       0.11585413      -0.09778016      -0.96932191       0.48932943
H       -2.59416718       1.49036278      -1.14696328       0.03252936      -0.13366466      -0.23898821      -0.19039600      -0.13690178      -1.20931900
H        0.61628519      -2.63671221      -1.94604081       0.27001415       0.09970122      -0.03069518      -0.37269184       1.07067621       0.73857337
H        0.85765908      -1.54508785      -0.52158059       0.31911316      -0.00340840       0.16688792       0.25785998      -0.10979051       0.30476007
