23
Properties=species:S:1:pos:R:3:momenta:R:3:forces:R:3 energy=-34120.10368949134 pbc="F F F"
N       -2.44465336      -3.45704814       0.26542436      -0.62026886      -0.19245085      -0.48931896      -1.47183836       0.69832575       3.49929094
C       -2.03597753      -2.26990314       1.07249671      -0.88005526       1.34612298       0.36950688      -1.07604015      -1.45046008      -1.04754186
H       -2.24036195      -4.31062252       0.80186815       0.20555665       0.27502515       0.13324397      -0.38999328       0.51699811       0.21806775
H       -1.78496664      -3.46566319      -0.41255106      -0.19654049       0.20988438      -0.03388086       2.52467728      -0.23219991      -3.50111699
C       -0.56036233      -2.13481948       1.33850542       0.03839561      -1.05751629       0.37661289      -0.82431173       0.93957615      -0.09524683
S        0.30988314      -1.59044900      -0.14987809      -0.73268729      -1.12756068      -0.54976612       1.25880384      -0.77313706       0.01287662
H       -0.25043456      -3.03518617       1.83060460      -0.06074002       0.14022891       0.36912695       0.99429584      -0.77388567      -0.21436918
H       -0.45402277      -1.35662800       2.07146198       0.11302179      -0.03791721      -0.11423529       0.38509169       0.52781355       0.47472498
H       -0.55084885      -0.72613155      -0.69212828      -0.10075029       0.09832377      -0.05745420      -0.60882297       0.10493230       0.14234228
C       -2.80892664      -2.25848916       2.35594480       0.15149878      -0.05257095      -0.27164602       0.63475609      -1.21227682       0.33771342
H       -2.28911399      -1.39959946       0.50355588      -0.06668433      -0.35560912       0.11167351      -0.64529854       0.82778323      -0.62702292
O       -3.16477772      -3.28375649       2.88766309       0.31361038       0.78970235      -0.42274411      -0.75195217      -1.40555441       0.29368395
N       -2.89496722      -1.07902199       2.93894357       0.72520916       0.42856483      -0.27792337      -0.45059332       2.30926895       1.19593525
H       -2.35488752      -0.32398483       2.50996275       0.18221093      -0.22169841       0.19171056      -0.63983780       0.27680808       0.70351940
C       -0.68939411       1.20697458       0.58154693      -0.45836479      -0.19401489      -0.27279805       1.92747582      -0.41152192      -0.83323469
O       -1.36914692       1.14155144       1.56384984      -0.31684602       0.20441141      -0.08217015      -0.24536496      -0.20460708       1.13361812
S       -1.51454419       1.11569989      -1.01206910       1.44453211      -0.29820267       0.94660850       0.36546310      -0.05528915       0.03711955
H       -2.51284906       1.78891347      -0.46038101      -0.01562105       0.32499901       0.23214053      -0.67563993       0.12066148      -0.24354000
C        0.83769258       1.49709810       0.58427640       0.45657023       0.06962369      -0.05426747      -0.58399504       0.84074771      -0.90436959
H        0.92834144       2.47598411       1.09184222      -0.16415098      -0.15134004      -0.29996279       0.12354401      -0.14646712      -0.50119174
H       -3.38176501      -0.99189904       3.86268857      -0.04178648      -0.13295642      -0.05124629       0.89384854      -0.03339599      -1.48530483
H        1.24572947       1.52752679      -0.47446568      -0.05396152      -0.18522357      -0.03756302      -0.46596697       0.06953554       1.35454392
H        1.42709180       0.81918127       1.19361451       0.07785121       0.12017480       0.28435276      -0.27830181      -0.53365588       0.04950244
