23
Properties=species:S:1:pos:R:3:momenta:R:3:forces:R:3 energy=-34120.45632696821 pbc="F F F"
N       -0.92869780      -1.03340241      -1.57220884       0.24254919      -0.84736971       0.88386556      -1.43115234      -2.19854641       0.23538087
C       -1.43532903       0.25347631      -1.29238802      -1.33702995      -1.28416037       0.20323523      -0.09038301       1.01508904       0.84710264
H       -1.69961294      -1.53746662      -2.07729442      -0.01204517       0.11052352      -0.20677082       1.05103636       0.46662340       0.68364906
H       -0.16796620      -1.06573046      -2.20138268       0.01301603       0.17513257       0.26299960       1.02816701       0.40853766      -0.79243129
C       -2.19635092       0.22999195       0.02927200      -0.20942270       0.07091812      -0.09623337      -1.31393802      -2.37194300      -0.35637864
S       -1.09287692      -0.23067773       1.35950769      -0.08917709       0.75950084       1.17074418       0.26789423       0.59930728       1.23182480
H       -3.12862586      -0.45516497      -0.00373579       0.09768524       0.05616839      -0.04265873       1.47595549       0.96309823       0.01860697
H       -2.52792956       1.20459006       0.27889978       0.06498420       0.14687515      -0.38610081      -0.48201481       1.16052485       0.32596442
H       -0.66367215      -1.44638023       1.03961941      -0.07700100      -0.28657066       0.15240300      -0.19179938      -0.38750851      -0.56537336
C       -2.38125605       0.67732829      -2.40467086      -0.30706034       0.09704511       0.10447853       0.82666779      -0.65392733      -0.72407550
H       -0.61972068       0.96652309      -1.06801249      -0.10558831      -0.04534170      -0.09277926      -0.12642322      -0.03327366      -0.70907110
O       -2.62884881      -0.13365475      -3.27813865       1.08447704       0.59974790       0.60726185      -0.58605516      -0.33894300      -0.55398190
N       -2.84269232       1.92138796      -2.45997105      -0.22820132       1.57997987      -0.99159989      -0.46127465       3.58870077       2.03349686
H       -2.76107990       2.65078157      -1.69038775       0.15803732      -0.01498166      -0.22012713       0.15154032      -1.75911868      -1.33733654
C       -0.37330484      -2.09637090       3.90526961       0.48440839      -0.76641213       0.21439678      -0.99558479      -0.45944188       1.50525303
O        0.78853376      -2.08519641       4.18178153       0.86996158      -0.48445969      -0.78486827       1.22437739       0.39545685      -0.26433516
S       -0.92016236      -3.43968379       2.85479752      -0.81897318      -0.65050730       0.08612042      -0.79448251       0.47215001      -0.53918166
H       -2.13889550      -2.91243253       2.58487941       0.23088777       0.08099192       0.13035278       0.22030371      -0.35046926       0.00387874
C       -1.36087456      -1.27993331       4.75702029       0.18752109       0.34504289      -0.70931747       0.55205286      -0.88069934       0.45333529
H       -0.70946186      -0.77994467       5.48850331      -0.00171280       0.01106674      -0.15852540      -0.33181062      -0.39715177       0.21593380
H       -3.38916135       2.25666506      -3.23619198       0.06949463       0.16077832       0.04167444      -0.07533051      -0.46800479      -0.29320097
H       -2.17616394      -1.88644056       5.22543786      -0.22736903       0.09778165      -0.22715926       0.83852172       0.30364114      -0.26663017
H       -1.81952269      -0.48844878       4.23274877      -0.08944205       0.08825043       0.05860751      -0.75626719       0.92589849      -1.15243006
