23
Properties=species:S:1:pos:R:3:momenta:R:3:forces:R:3 energy=-34120.83345417205 pbc="F F F"
N       -1.44912448      -0.47197934      -0.85103419       0.50915790       0.66633625       0.41220447      -0.15817678       1.93442154       1.68140984
C       -0.13253101      -0.98944492      -0.72292947       0.43952885       0.13103524      -0.06552553       0.24999410      -2.01712179       0.30945468
H       -1.29443478       0.54662169      -0.94607673      -0.12142394       0.13496913       0.00464670      -0.53910011      -0.33851793       0.08283411
H       -1.81941159      -0.75761730      -1.70956859      -0.44397462       0.05952288      -0.05717067      -0.77142066      -0.56892717      -1.72354829
C        0.29851440      -1.10657315       0.76540663      -0.03354183      -0.87388339      -0.72375122      -0.52057290      -0.75389212      -1.12859213
S       -0.22935710      -2.60419998       1.62814447      -0.51901112      -0.13055195      -0.79306365      -0.47582339      -0.31788844       0.31309156
H       -0.06822489      -0.28025636       1.29559671      -0.00763160       0.05716910       0.07863737      -0.31549409       1.57081938       0.86209625
H        1.36456612      -1.14193823       0.80168683       0.01667621       0.05131426       0.13251009       0.94254220       0.05909362       0.26160589
H       -1.51651519      -2.34257752       1.95555564      -0.00181519       0.18556857      -0.02837819      -0.12852194       0.40108940      -0.29177816
C        0.86487831      -0.14902498      -1.51908314      -0.55373485      -0.31095951      -0.75321456       0.86775231       1.31295502       0.66729581
H       -0.17182774      -2.05245753      -1.01583325       0.22506059       0.00344539      -0.27136112       0.40478399       0.26778793      -0.60396600
O        0.65493455       1.06582323      -1.66260104      -0.29853729      -0.04873282       0.40657246       0.27992561      -1.57026315      -0.16339797
N        2.06801087      -0.73267021      -1.83635271      -0.65677428      -0.29939922      -0.02285151       0.46026203       2.20000648      -0.26853386
H        2.20642217      -1.72162031      -1.81349217      -0.10341682       0.07894460       0.26743895       0.20217460      -0.34445643       0.09298747
C       -3.66888286      -0.39615702       2.97444341       0.59249017      -0.40794293       0.01600112       0.28782624       0.04483223       0.80270553
O       -4.04285781      -0.64266257       4.10274036       0.31768032       0.41892917       0.66046754       0.34488049       0.13424204      -1.01805246
S       -4.12695675      -1.56278886       1.69489001       0.37639662      -0.41604039      -0.45384964       0.36867771      -0.55188542      -0.43343802
H       -3.45209576      -1.16418385       0.57994597      -0.05462455      -0.07449802       0.14830916       0.01927966       0.31243730       0.65992105
C       -2.90251613       0.85894844       2.58428446       0.47587887       0.87931364       0.88022988      -0.26777151      -1.67079914      -1.02731895
H       -2.50755943       1.30209638       3.47198759      -0.12573557      -0.12764208       0.00767535      -0.07841815       0.75779855       0.63538444
H        2.86010524      -0.06130680      -2.04934979      -0.04785438       0.02730784       0.05652574      -1.45881736      -1.50198114       0.14224042
H       -3.58388987       1.44846914       1.96089400       0.03026213       0.12806482       0.13277900       0.25771326       0.47098610       0.31998491
H       -2.05938601       0.54031821       1.95986203      -0.01505718      -0.13227068      -0.03483110       0.02830440       0.16926217      -0.17238590
