20
Properties=species:S:1:pos:R:3:momenta:R:3:forces:R:3 Coordinates=T from=T ORCA-job=T int=T E=T -1253.934929368563=T energy=-23251.874575612703 pbc="F F F"
N       -1.60102962       0.61505794       0.77463487      -0.40757537      -0.64158887       1.37376374      -0.17779089       2.32788321      -1.21504127
C       -0.50571761       0.25786814      -0.27715063      -0.44237076      -0.07894767      -0.54853489      -1.28453088      -0.70073152      -0.17231381
H       -1.37498929       1.56277531       1.19367185       0.19720124       0.05418713       0.28230685      -0.22222492      -1.24858606       0.08471371
H       -2.43733758       0.71902614       0.13476674      -0.14744014       0.14177789       0.29333099       0.46626656      -0.84954892       0.62603399
C       -0.51538408      -1.29738689      -0.18928626       0.17380130      -0.57714974      -1.15767147      -0.35904470      -0.36666870      -1.21302402
S       -2.27249562      -1.75039636       0.25411154       1.21011239       0.23445050      -0.94672323       1.17427010       1.28649418      -0.08286835
H        0.06784488      -1.58453828       0.70320636      -0.43703390       0.08686347      -0.16248510      -0.05676636      -0.15889141      -0.64368278
H       -0.17450576      -1.79758225      -1.15360520       0.01977420      -0.05505952       0.27939712      -0.39024007       0.59929693       1.34315681
C        0.84963851       0.91198029      -0.05294550       0.83000149       0.24896514       0.18698960       0.46131623      -0.87572956       0.60521662
H       -0.92215245       0.64138519      -1.20901981      -0.06765819       0.27714463      -0.17406031       0.35687754      -0.42292196      -0.12339723
O        1.59836422       1.29111443      -0.94876094      -0.44276924       0.11209972      -0.75140329      -1.10394442      -0.14945333       0.94293821
N        1.15433630       0.89779460       1.28558077       0.07429829      -0.14351634       0.52084262      -0.06562370       0.89030498      -1.40791559
H        0.73446804       0.34080720       1.98807984      -0.02415896      -0.23842045       0.05285538      -1.02657259      -0.78079373       0.53475189
C       -1.94962248      -0.48917181       1.67089432      -0.00183495       1.29159557       0.29441030       4.33087295       0.05462190       0.67852330
O       -0.89767250      -0.82452117       2.37354962       0.86283942      -0.15803757       0.02214332      -1.19677734       0.10065651      -0.39364886
C       -3.13981143      -0.21157614       2.52217994      -0.74658992      -0.53597336       0.68213146      -1.84477711       1.71523046      -0.26054806
H       -3.02915624       0.49319819       3.40922855      -0.24114339      -0.08296459      -0.17218989       0.33670431      -0.95116448      -1.26158547
H        2.02513842       1.28975283       1.51329700      -0.18668311      -0.10640840      -0.09884623       1.37940800       0.57881212       0.32303774
H       -3.47970904      -1.16532735       2.80473970      -0.30189078       0.05940110       0.01021834      -0.60399967      -1.28915846       1.08488953
H       -3.90184919       0.15540998       1.81327542       0.07912065       0.11158136       0.01352522      -0.17342266       0.24034807       0.55076349
