20
Properties=species:S:1:pos:R:3:momenta:R:3:forces:R:3 Coordinates=T from=T ORCA-job=T int=T E=T -1253.934929368563=T energy=-23252.88938118586 pbc="F F F"
N        0.18746754      -0.97916931       0.49966889      -0.36807194       0.13449318       0.04458671       1.83231905       0.00594439      -1.06711747
C       -0.01908994      -0.41004954       1.76496192      -0.10477631      -0.64200783       0.64618415      -2.16949940       1.64629066       1.98714185
H        1.06074242      -1.40919917       0.69517567      -0.21513254       0.06213763       0.20785962       1.40466642      -0.71592641      -1.03940952
H       -0.46176393      -1.72998579       0.40481289       0.09147790       0.27815455       0.00077181       0.04448479      -1.07363685      -0.32356960
C       -1.62650950      -0.32729472       2.00283714      -0.28793705       1.00423045      -0.52126528       1.34858227      -1.75426745       0.99018461
S       -2.42863069      -1.48076733       0.87084776      -1.41447114       0.89054071       1.71452679      -1.12082610      -0.03005181      -0.30251521
H       -1.95073815       0.67620525       1.87744176       0.07111686      -0.12840994       0.02959261      -0.54835820       1.02747774      -0.36577857
H       -1.97048019      -0.71209694       2.99748842       0.30943452       0.01965146       0.01616585       0.65282357       0.59412169      -0.54642099
C        0.64569753       0.97927072       1.83707773      -0.17891876       0.01320842      -0.38905888      -0.34396404      -0.45161372      -1.15143383
H        0.51100735      -0.97021453       2.53904316      -0.30248562       0.21059300       0.08090499      -0.33440036      -0.06629783       0.65249377
O        1.55972131       1.19990229       2.58936785       0.12920938       0.13789736      -0.16724587       0.67597735       0.17572251       1.21410155
N        0.25526313       1.87649913       0.89860894      -0.05872762       0.20213839       0.40477503      -1.27004063      -0.78038025      -0.75094128
H       -0.46916462       1.69278700       0.20297016       0.05907355       0.14582793      -0.05561522       0.16034597      -0.38387504       0.33243361
C       -1.95003531      -0.68309007      -0.70067844       0.93019263      -1.04998567      -0.92509619      -1.19752363      -1.50960727       0.59003849
O       -1.89949984       0.49931219      -0.76798010       0.27959514      -0.09765545       1.07930587       0.38925722       2.31330633      -0.31151938
C       -1.88030468      -1.56761703      -1.90952889       1.02564108      -0.36330129      -1.04630743      -1.76735318       1.08538926      -1.04759586
H       -2.46111771      -2.46837899      -1.78045973       0.04205185      -0.01927041      -0.26920235      -0.21556666      -0.39606863       0.09160645
H        0.43792567       2.83078280       1.05043235      -0.00745106      -0.37224564       0.03258409       0.66236669       1.21493745       0.33173877
H       -0.91342446      -1.82993458      -2.26330478       0.02050434      -0.06386940      -0.37322854       1.25421751      -0.02232444       0.05510148
H       -2.36154216      -0.93000534      -2.71367127      -0.02032530      -0.36212746      -0.51023722       0.54249167      -0.87914008       0.66146135
