23
Properties=species:S:1:pos:R:3:momenta:R:3:forces:R:3 energy=-34118.44865196599 pbc="F F F"
N       -1.93363748       0.78013691       2.97982991       0.26830121      -0.34988657       0.11376065       0.04527709       0.52671713       0.37003034
C       -2.95511537       0.63413914       1.99764730       0.61427905       1.04501201      -0.00948974      -0.76782387      -1.63802433      -1.65806007
H       -1.02599666       0.56708379       2.61276725       0.19040515       0.04437734      -0.24515325       0.59914333      -0.22857791      -0.17966947
H       -1.90729913       1.73475016       3.28124463       0.24448095      -0.06661303      -0.16293387       0.09252099       0.63161361       0.39734644
C       -3.15436271      -0.92713963       1.78538805       0.39655908      -0.59470778      -0.14101025       0.64070153       0.51104367      -0.39288422
S       -1.45341236      -1.71632384       1.69732460      -0.77789921       0.01718604      -0.79347245      -0.62738092       0.25375259       0.11992939
H       -3.65674020      -1.19086391       0.83633052      -0.01982638      -0.15518856      -0.10296813       0.05595263       0.33882415       0.30390102
H       -3.73744908      -1.34561212       2.59434522      -0.39277284       0.19798796       0.25493167      -0.04144824      -0.23904192       0.43357795
H       -1.73027104      -2.50827682       0.64295783      -0.01928996       0.12621698       0.10036233       0.45635851       0.08779106      -0.42109443
C       -2.85297408       1.30039581       0.57780108       0.40438457       1.19804974      -1.56689676       2.76480007      -1.16676438       1.71306026
H       -3.85706428       1.12620160       2.33657638       0.16515120      -0.18244912       0.20126749      -0.43853524      -0.33749381       0.47006011
O       -3.63847850       2.13826246       0.26130420      -0.21149019      -0.67921480      -0.05552542      -1.39979792       1.14127195      -1.10825348
N       -1.72330938       0.95014352      -0.12723686      -0.04585455       0.21622002       0.89538793      -1.44208121       1.17287612      -1.00396872
H       -1.06633812       0.28297599       0.16274587       0.02043322       0.30938641      -0.12182234       0.91219354      -1.11554587       0.62880701
C        0.54663699      -2.14408421       0.39684391      -0.54573635       0.07074518      -0.44508619      -1.35536020      -1.60881800      -0.06265529
O        1.14696105      -1.13851467       0.17609195       0.62024907      -0.11663991       1.01279387      -0.05689042       0.90933925      -0.04411645
S       -0.63540763      -2.84140587      -0.86568637      -0.71565379       0.48410924       0.54606907      -0.41061176       0.07620686       0.70584894
H        0.08988191      -2.36872962      -1.85736322      -0.12672894      -0.10024377       0.02427295       0.33187741       0.15735632      -0.95840663
C        1.04373147      -3.20253150       1.36296782      -0.33732074      -1.38434755       0.51413804      -0.25183225       1.35264814       1.49667239
H        0.26306277      -3.78776675       1.89766048       0.18647646      -0.27594817      -0.11904317       0.39964706       0.40053964      -0.46620896
H       -1.66589007       1.21043821      -1.10146604       0.15230738      -0.20835549       0.20491921      -0.05279480       0.27670658      -0.02497368
H        1.55666944      -2.50966881       2.09290854      -0.11729485      -0.06121907       0.05339751       0.00750261      -1.38523471      -0.38471869
H        1.69471643      -3.86777404       0.81213581       0.04684063       0.46552326      -0.15789879       0.53858179      -0.11718567       0.06577607
