23
Properties=species:S:1:pos:R:3:momenta:R:3:forces:R:3 energy=-34120.42951904203 pbc="F F F"
N       -0.67283942      -1.34218281      -1.44760326       0.12454403       0.27061706      -0.37635289      -0.17823155       2.69213891      -0.56760794
C       -1.63179289      -0.16634479      -1.38117984       1.21519104       0.46213821      -1.01667552       1.14563191      -0.72307134      -0.24321190
H       -1.14016867      -2.11623814      -1.85443460       0.05359737       0.19227563       0.23243638      -0.65451407      -1.03418624      -0.63744068
H        0.02941954      -1.00982180      -2.14332067       0.07650685       0.07465240      -0.37367241      -0.47755215      -0.85678619       0.65499264
C       -2.49180854      -0.27061660      -0.11120165       1.08627853       0.38594263       1.08184911       0.43212819       0.91759825      -0.04461522
S       -1.52539725      -0.13311450       1.49065727       0.60322399      -0.00656214       0.26544477      -0.48329334       0.06478529      -1.68613697
H       -2.96786956      -1.21854630      -0.14385198       0.31631541      -0.08354428      -0.05496310      -0.42651582      -1.29315317       0.18363243
H       -3.33810875       0.43640156      -0.17233232      -0.00602527      -0.01539367       0.04209054       0.60635585       0.21205302       0.47219518
H       -0.54314261      -0.95732966       1.04771280       0.10626324       0.13384746       0.08132397      -0.31949902       0.26814878       0.13718537
C       -2.52667002       0.11971472      -2.64678311      -0.43585548       0.09650393      -1.23492323       0.20388767       0.11600828       1.23252165
H       -0.90419713       0.63442246      -1.32869139       0.01571515      -0.16440838      -0.13248025      -0.20042562       0.88245237       0.39560711
O       -2.88879542      -0.71799425      -3.42632454      -0.34698167      -0.02379689       0.47355592      -0.13788678      -1.37919486      -0.68080086
N       -3.00195250       1.39938745      -2.71103344      -0.36493770      -0.19773626       0.75592209      -0.03547630       0.18516719       0.28021741
H       -2.45713194       2.15794378      -2.36707002       0.12349000       0.16447847      -0.01981101       0.22790858       0.52674568       0.45637977
C       -0.60936850      -1.76427797       4.10553770      -1.15643528      -0.52594412      -0.45083578      -0.02545562       1.15931488       0.65893770
O       -0.28661407      -0.85860230       4.83439552       0.37034460      -1.07713085      -0.58961611      -0.22278708      -0.27750206      -0.16240454
S        0.72898545      -2.45804337       3.04194126      -1.52861031      -0.52498019      -0.29491213      -0.75651889      -0.83147142       0.49074087
H        0.32082418      -3.74675943       3.16845679      -0.07189238      -0.05928579       0.11294291       0.16967805       0.39774862      -0.24386188
C       -2.05928925      -2.23537105       3.97995332       0.34628826       0.84431239       1.03355631       0.34400326      -0.39507803      -1.02662659
H       -2.11530996      -2.71704436       2.95912493      -0.34572600       0.01185423      -0.21462829      -0.60489887       0.70254433       0.93369693
H       -3.72386656       1.63577896      -3.37449096      -0.24850501       0.14086285       0.29028501       0.16862565      -0.27749613      -0.28784096
H       -2.81179421      -1.40048465       4.18125717       0.05498094       0.00358588       0.00692755       1.26912212      -1.00219393      -0.51845491
H       -2.22824283      -3.03783107       4.70089924       0.01222967      -0.10228934       0.38253575      -0.04428641      -0.05457255       0.20289469
