23
Properties=species:S:1:pos:R:3:momenta:R:3:forces:R:3 energy=-34120.21431400187 pbc="F F F"
N       -2.90378544       1.26247486       2.24469045       0.72635522      -0.09351217       0.04041315       1.74857152      -0.57509226       0.15503834
C       -2.42818081       0.32475971       1.22448380      -0.36033156       0.34262704      -0.33805720       1.08458352       1.61179626      -1.30063188
H       -2.66280749       1.01973601       3.21673459       0.25981610      -0.22844459       0.11710807      -0.09862120      -0.13289113      -0.90015244
H       -3.87839315       1.41929679       2.15580064       0.11057768       0.19383396       0.03214811      -1.03381872       0.08396268      -0.21829602
C       -0.95637545       0.68244681       0.70819262      -1.35386794      -0.00298463       0.98988199      -0.46310729      -0.44204500       1.09048069
S        0.48940388       0.02039449       1.73350762       0.84063376       0.11933535       0.87959738      -2.13420952      -0.92248593       0.04342137
H       -0.86441042       1.77046737       0.63527181      -0.05068234       0.19129713      -0.05117032       0.10248338       0.00935008       0.34818485
H       -0.81641464       0.28993084      -0.28313757       0.12636732       0.22038863       0.21753442       0.13143431      -0.29640323      -0.42736542
H       -0.15403737      -1.21799026       2.14700812       0.19326484       0.11102216       0.13454440       0.84290650       1.95017270      -0.38908527
C       -3.43759283       0.31369018       0.02256377      -0.66032668       0.05359307      -0.82610741      -0.90035641      -0.58980131       0.63578320
H       -2.43573768      -0.69468696       1.51217816       0.06419623      -0.03395185       0.12138791       0.28896624      -1.54424012       0.95919907
O       -4.45012003       0.99476369       0.18362256      -0.12485388       0.92560432       1.21901627       0.61664188      -0.63143361      -1.23250091
N       -3.29683222      -0.64613995      -1.00546213      -0.32018380      -0.54136062      -0.21038951      -0.22186531       2.42106962       2.68810415
H       -2.42495336      -1.07930926      -1.21007336       0.13430167      -0.10057296      -0.11716140       0.75960261      -0.46764728      -0.12144118
C       -0.09167088      -2.63605707       0.29135321       0.83902662       0.09214057      -0.78707204       0.32105542       1.27443908      -0.88444196
O       -0.60689236      -1.93092443      -0.55444660      -1.14037209      -0.64042771       0.45859302      -0.49714753      -0.77673906       0.27760595
S       -0.97600951      -3.15922413       1.74009003       0.75022320       1.07612230      -0.77126429       0.41627988      -0.78531567       0.60844264
H        0.09844977      -3.76652628       2.37770091      -0.01687899      -0.34748099      -0.00852286      -1.10735178       0.52934587      -0.59496886
C        1.37694164      -2.94381756       0.22607584       0.26020811      -0.52867829      -0.42923460       0.11659768      -0.12216341       0.79750317
H        1.63330432      -3.24350474       1.26512120       0.01182770      -0.46492697      -0.03050420       0.53958464      -0.25052971      -0.92790896
H       -4.02715115      -0.59639865      -1.66972488      -0.05618105      -0.05274703      -0.31261139      -0.57777530      -0.08824798      -0.90736800
H        1.91148717      -1.98093652       0.02937303      -0.19750948      -0.06945140       0.01691627      -0.35942197      -0.95757806      -0.33372486
H        1.50497250      -3.74939545      -0.53768533      -0.03561124      -0.22142400      -0.34504424       0.42496836       0.70247710       0.63412267
