23
Properties=species:S:1:pos:R:3:momenta:R:3:forces:R:3 energy=-34118.62187210307 pbc="F F F"
N        1.13375705      -2.06752704       3.11761676      -0.40850755      -0.24928759       0.84214538      -0.07736258      -0.99756324       1.58346462
C        0.02500885      -1.52159148       2.38226832       0.29582034      -0.15970995      -0.28222046      -0.79750770       0.15426874       0.12728523
H        0.83128756      -2.56934244       4.02953911      -0.24623476      -0.14433911       0.08382997       0.65186280       1.58047819      -2.03607869
H        1.75787651      -1.28855305       3.33797806       0.07305196      -0.03174869      -0.33017653      -0.18632977      -0.33458936       0.53937572
C        0.59258591      -1.01363664       1.02349646      -0.12335082      -0.76832757      -0.19798617       0.20845130      -0.70036745       1.85326362
S       -0.64465793      -0.34141586      -0.00766300      -0.42772729       1.02911408      -0.88928668      -1.18392452       1.19359177      -0.99254870
H        1.08606568      -1.88943587       0.64979499      -0.04428145      -0.30151826       0.07253690       0.42646426      -0.44076112      -0.77992153
H        1.35516669      -0.25559342       1.19791972      -0.05547156       0.13778716       0.06430517       0.19728377       0.17454028       0.21556035
H       -1.17830064      -1.46622076      -0.48137957      -0.03180967      -0.16498884       0.05786577      -0.15783100      -1.18069365      -0.49176752
C       -0.74382597      -0.40815764       3.17105070      -0.99433509      -0.29714375       0.04263485       0.46745437       0.01179919       0.10430352
H       -0.65958063      -2.37321667       2.21634233       0.09056095       0.02442381      -0.00568751      -0.08279324       0.36669531      -0.37674308
O       -0.17980908       0.10439807       4.12270788       0.34812619      -0.29252960       0.47001778       0.14087321       0.14703777       0.21069656
N       -1.99444561      -0.02027639       2.81720484       0.29450036      -0.51387606      -0.34626490      -1.08455467       1.19095075       0.96918339
H       -2.55610707      -0.24926346       2.03046181      -0.02261513       0.06298815      -0.03650166       0.15277722      -0.90070337      -1.08067310
C       -3.01674877      -0.64364371      -0.78459824       0.49750024      -0.06550667      -0.42678005      -0.37770627       0.51837555      -0.60891068
O       -3.73354258      -0.63067319       0.17732259      -0.18279544       0.03682975       0.39281001       0.32152051      -0.20332876       0.46679577
S       -2.48337856      -2.32115095      -1.50479636       0.56684824       1.02636418       0.60748912      -0.10756047       0.77936712       0.76020672
H       -3.02050048      -3.02378418      -0.47478636       0.11623502       0.06838279      -0.16553898       0.15061086       0.39260626      -0.36856800
C       -2.83411140       0.59895406      -1.66971778       0.63389963       1.02082785       0.00149715       2.01511002      -1.37142658      -0.31753516
H       -3.72229764       0.84564902      -2.18871260      -0.28718583       0.19527624      -0.13414732      -1.46235037       0.31239724      -0.23196644
H       -2.45689813       0.73833838       3.34716198      -0.05148497       0.17639191       0.17691843       1.03400815      -0.78864199      -0.00744969
H       -2.11499942       0.35550575      -2.48139060      -0.14689458      -0.38067599      -0.07264375      -0.08187188       0.27940997       0.54308468
H       -2.46923453       1.43901296      -1.06783295       0.10615150      -0.40873423       0.07518278      -0.16662443      -0.18344243      -0.08105834
