20
Properties=species:S:1:pos:R:3:momenta:R:3:forces:R:3 Coordinates=T from=T ORCA-job=T int=T E=T -1253.934929368563=T energy=-23253.35784865581 pbc="F F F"
N       -0.88874359      -0.39386806       2.29783552       1.19230409      -0.26478540       0.57541746      -0.54047243       0.98194236      -0.04619678
C        0.34967644      -0.32655309       1.51289061      -0.18349420      -0.78654970       0.27173695      -0.52753508      -0.39487308       0.28623104
H       -0.62715124      -0.48385186       3.25447760       0.00368852      -0.08260771       0.07709969       0.07374653      -0.20374334       0.98411256
H       -1.49719090       0.48181418       2.22823573      -0.18660530       0.17697551       0.05333588       1.48083171      -1.93386366       0.78510581
C        0.08539559       0.52658746       0.19808189       0.66186221       0.21197223       0.47704758       2.64650273      -1.01317942       0.52446723
S       -1.25599250       1.64646426       0.21577504      -1.00405192      -0.11370258      -0.21146121      -0.95589015       0.71361225      -0.62734883
H       -0.03232455      -0.18300564      -0.62080919       0.13270635      -0.15397235       0.07247860      -0.05018152       0.08193508      -0.26468784
H        1.00374321       1.14411828       0.00449665       0.08372751       0.09702002      -0.15274336      -0.72070730      -0.58651131      -0.03775239
C        0.78821652      -1.83952731       1.21619262      -0.57103159       1.14085601      -0.74133873      -2.80759931       2.23300314      -1.23456156
H        1.21625981       0.03759759       2.12999341      -0.24406230       0.06138748      -0.02486111      -0.56220382       0.10228342      -0.65624952
O        1.81889124      -2.26829071       1.62069089       0.60149382       1.04461876      -0.51157085       2.05648017      -0.86228943       0.73077101
N       -0.09078052      -2.56494173       0.44049492       0.52481399       0.14026760      -0.32632749       0.83880329       0.70947731       0.77162528
H       -1.01294368      -2.25050019       0.19462876       0.10443658      -0.07263239       0.12366474      -0.27580476       0.32084754      -0.11882195
C       -2.62127900       0.49202686       0.08273256       0.28299185      -0.35344013       0.26253936      -1.61130472       0.44546720      -1.08471132
O       -2.55814964      -0.69884083      -0.10514026      -0.80869064      -0.55753728       0.10845889       0.70547187       0.09051228       0.00374115
C       -3.97386964       1.20714942       0.18924725      -0.00968955      -0.40830505       0.25435751       0.34165692      -0.46288693      -1.15899312
H       -3.95415494       1.71595373       1.14168195      -0.24576041      -0.01598381      -0.10971095      -0.13237110       1.26057184      -0.08273101
H        0.35109256      -3.31804184      -0.03958510       0.04137667      -0.29088971       0.01920924      -0.12294061      -0.77354419      -0.28280601
H       -4.74710881       0.45468073       0.34270708      -0.19754992       0.03522480       0.03982927      -0.02675352      -0.25780386      -0.49737471
H       -4.16474730       1.78880100      -0.79169719      -0.17846601       0.19208329      -0.25716156       0.19027066      -0.45095804       2.00618076
